/*---------------------------------------------------------------------------*\
| =========                 |                                                 |
| \\      /  F ield         | OpenFOAM: The Open Source CFD Toolbox           |
|  \\    /   O peration     | Version:  2212                                  |
|   \\  /    A nd           | Website:  www.openfoam.com                      |
|    \\/     M anipulation  |                                                 |
\*---------------------------------------------------------------------------*/
Build  : _f8e05934-20230403 OPENFOAM=2212 patch=230110 version=2212
Arch   : "LSB;label=32;scalar=64"
Exec   : surfaceFeatureExtract
Date   : Jul 25 2023
Time   : 16:19:50
Host   : hv-Precision-5820-Tower-X-Series
PID    : 66750
I/O    : uncollated
Case   : /home/hv/harsh/Anvil/automization/src/UUVhull
nProcs : 1
trapFpe: Floating point exception trapping enabled (FOAM_SIGFPE).
fileModificationChecking : Monitoring run-time modified files using timeStampMaster (fileModificationSkew 5, maxFileModificationPolls 20)
allowSystemOperations : Allowing user-supplied system call operations

// * * * * * * * * * * * * * * * * * * * * * * * * * * * * * * * * * * * * * //
Create time


Note: Feature line extraction only valid on closed manifold surfaces

Reading surfaceFeatureExtractDict

Surfaces     : UUV.stl
Output       : UUV
Load options : offset
Write options: writeObj=yes writeVTK=off

Statistics:
Triangles    : 31304 in 1 region(s)
Vertices     : 15654
Bounding Box : (-0.70010775 -0.43593833 -0.54032952) (0.78112721 0.43593824 0.54032952)

Constructing feature set from included angle 150
Selecting edges based purely on geometric tests: no

Initial Feature set:
    points : 16
    edges  : 244
    of which
        region edges   : 0
        external edges : 224
        internal edges : 20

Final Feature set:
    points : 236
    of which
        convex             : 8
        concave            : 0
        mixed              : 8
        non-feature        : 220
    edges  : 244
    of which
        external edges     : 224
        internal edges     : 20
        flat edges         : 0
        open edges         : 0
        multiply connected : 0

Writing extendedFeatureEdgeMesh to "/home/hv/harsh/Anvil/automization/src/UUVhull/constant/extendedFeatureEdgeMesh/UUV.extendedFeatureEdgeMesh"

Writing extendedEdgeMesh components to "/home/hv/harsh/Anvil/automization/src/UUVhull/constant/extendedFeatureEdgeMesh/UUV"
Writing 8 convex feature points to "/home/hv/harsh/Anvil/automization/src/UUVhull/constant/extendedFeatureEdgeMesh/UUV_convexFeaturePts.obj"
Writing 0 concave feature points to "/home/hv/harsh/Anvil/automization/src/UUVhull/constant/extendedFeatureEdgeMesh/UUV_concaveFeaturePts.obj"
Writing 8 mixed feature points to "/home/hv/harsh/Anvil/automization/src/UUVhull/constant/extendedFeatureEdgeMesh/UUV_mixedFeaturePts.obj"
Writing 8 mixed feature point structure to "/home/hv/harsh/Anvil/automization/src/UUVhull/constant/extendedFeatureEdgeMesh/UUV_mixedFeaturePtsStructure.obj"
Writing 224 external edges to "/home/hv/harsh/Anvil/automization/src/UUVhull/constant/extendedFeatureEdgeMesh/UUV_externalEdges.obj"
Writing 20 internal edges to "/home/hv/harsh/Anvil/automization/src/UUVhull/constant/extendedFeatureEdgeMesh/UUV_internalEdges.obj"
Writing 0 flat edges to "/home/hv/harsh/Anvil/automization/src/UUVhull/constant/extendedFeatureEdgeMesh/UUV_flatEdges.obj"
Writing 0 open edges to "/home/hv/harsh/Anvil/automization/src/UUVhull/constant/extendedFeatureEdgeMesh/UUV_openEdges.obj"
Writing 0 multiple edges to "/home/hv/harsh/Anvil/automization/src/UUVhull/constant/extendedFeatureEdgeMesh/UUV_multipleEdges.obj"
Writing 0 region edges to "/home/hv/harsh/Anvil/automization/src/UUVhull/constant/extendedFeatureEdgeMesh/UUV_regionEdges.obj"
Writing 244 edge directions to "/home/hv/harsh/Anvil/automization/src/UUVhull/constant/extendedFeatureEdgeMesh/UUV_edgeDirections.obj"

Writing featureEdgeMesh to "/home/hv/harsh/Anvil/automization/src/UUVhull/constant/triSurface/UUV.eMesh"
ExecutionTime = 0.1 s  ClockTime = 0 s

End

