Invalid MIT-MAGIC-COOKIE-1 key/*---------------------------------------------------------------------------*\
| =========                 |                                                 |
| \\      /  F ield         | OpenFOAM: The Open Source CFD Toolbox           |
|  \\    /   O peration     | Version:  2212                                  |
|   \\  /    A nd           | Website:  www.openfoam.com                      |
|    \\/     M anipulation  |                                                 |
\*---------------------------------------------------------------------------*/
Build  : _f8e05934-20230403 OPENFOAM=2212 patch=230110 version=2212
Arch   : "LSB;label=32;scalar=64"
Exec   : simpleFoam -parallel -decomposeParDict system/decomposeParDict.6
Date   : Jul 25 2023
Time   : 16:20:18
Host   : hv-Precision-5820-Tower-X-Series
PID    : 66797
I/O    : uncollated
Case   : /home/hv/harsh/Anvil/automization/src/UUVhull
nProcs : 4
Hosts  :
(
    (hv-Precision-5820-Tower-X-Series 4)
)
Pstream initialized with:
    floatTransfer      : 0
    nProcsSimpleSum    : 0
    commsType          : nonBlocking
    polling iterations : 0
trapFpe: Floating point exception trapping enabled (FOAM_SIGFPE).
fileModificationChecking : Monitoring run-time modified files using timeStampMaster (fileModificationSkew 5, maxFileModificationPolls 20)
allowSystemOperations : Allowing user-supplied system call operations

// * * * * * * * * * * * * * * * * * * * * * * * * * * * * * * * * * * * * * //
Create time

Create mesh for time = 0


SIMPLE: convergence criteria
    field p	 tolerance 0.0001
    field U	 tolerance 0.0001
    field "(k|epsilon|omega|f|v2|nuTilda)"	 tolerance 0.0001

Reading field p

Reading field U

Reading/calculating face flux field phi

Selecting incompressible transport model Newtonian
Selecting turbulence model type RAS
Selecting RAS turbulence model kOmegaSST
Selecting patchDistMethod meshWave
RAS
{
    RASModel        kOmegaSST;
    turbulence      on;
    printCoeffs     on;
    alphaK1         0.85;
    alphaK2         1;
    alphaOmega1     0.5;
    alphaOmega2     0.856;
    gamma1          0.55555556;
    gamma2          0.44;
    beta1           0.075;
    beta2           0.0828;
    betaStar        0.09;
    a1              0.31;
    b1              1;
    c1              10;
    F3              false;
    decayControl    false;
    kInf            0;
    omegaInf        0;
}

No MRF models present

No finite volume options present

Starting time loop

forceCoeffs forceCoeffs_cl:
    p: p
    U: U
    rho: rhoInf
    Freestream density (rhoInf) set to 1.225
    Not including porosity effects
    Fields will be written
    magUInf: 20
    lRef   : 1.481235
    Aref   : 1.1055871
    rhoInf : 1.225
    Selecting all coefficients
    - Drag force: Cd
    - Drag force front: Cd(f)
    - Drag force rear: Cd(r)
    - Lift force: Cl
    - Lift force front: Cl(f)
    - Lift force rear: Cl(r)
    - Pitch moment: CmPitch
    - Roll moment: CmRoll
    - Yaw moment: CmYaw
    - Side force: Cs
    - Side force front: Cs(f)
    - Side force rear: Cs(r)


forceCoeffs forceCoeffs_cd:
    p: p
    U: U
    rho: rhoInf
    Freestream density (rhoInf) set to 1.225
    Not including porosity effects
    magUInf: 20
    lRef   : 1.481235
    Aref   : 0.60722488
    rhoInf : 1.225
    Selecting all coefficients
    - Drag force: Cd
    - Drag force front: Cd(f)
    - Drag force rear: Cd(r)
    - Lift force: Cl
    - Lift force front: Cl(f)
    - Lift force rear: Cl(r)
    - Pitch moment: CmPitch
    - Roll moment: CmRoll
    - Yaw moment: CmYaw
    - Side force: Cs
    - Side force front: Cs(f)
    - Side force rear: Cs(r)


forces force_computation:
    p: p
    U: U
    rho: rhoInf
    Freestream density (rhoInf) set to 1.225
    Not including porosity effects

Time = 1

smoothSolver:  Solving for Ux, Initial residual = 1, Final residual = 0.04079667, No Iterations 3
smoothSolver:  Solving for Uy, Initial residual = 1, Final residual = 0.071392971, No Iterations 3
smoothSolver:  Solving for Uz, Initial residual = 1, Final residual = 0.070812779, No Iterations 3
GAMG:  Solving for p, Initial residual = 1, Final residual = 0.0089991139, No Iterations 7
GAMG:  Solving for p, Initial residual = 0.0033522721, Final residual = 1.5813472e-05, No Iterations 3
GAMG:  Solving for p, Initial residual = 0.00040680587, Final residual = 3.7801982e-06, No Iterations 3
GAMG:  Solving for p, Initial residual = 8.8317704e-05, Final residual = 8.4026091e-07, No Iterations 3
GAMG:  Solving for p, Initial residual = 2.359835e-05, Final residual = 2.1733818e-07, No Iterations 3
GAMG:  Solving for p, Initial residual = 7.0106782e-06, Final residual = 6.1320404e-08, No Iterations 3
time step continuity errors : sum local = 2.6063291e-06, global = 6.8628201e-07, cumulative = 6.8628201e-07
smoothSolver:  Solving for omega, Initial residual = 0.00046998913, Final residual = 4.0075151e-05, No Iterations 2
smoothSolver:  Solving for k, Initial residual = 1, Final residual = 0.057350268, No Iterations 2
ExecutionTime = 0.83 s  ClockTime = 1 s

forceCoeffs forceCoeffs_cl write:
    Coefficient	Total	Pressure	Viscous	Internal
    Cd:	7.6481645	7.6053987	0.042765776	0
    Cd(f):	3.8240839	3.8027011	0.021382891	0
    Cd(r):	3.8240806	3.8026977	0.021382885	0
    Cl:	0.00067448884	0.00067478581	-2.969735e-07	0
    Cl(f):	-5.6080098e-05	-5.4583961e-05	-1.4961364e-06	0
    Cl(r):	0.00073056893	0.00072936977	1.1991629e-06	0
    CmPitch:	-0.00039332452	-0.00039197687	-1.3476497e-06	0
    CmRoll:	1.6858592e-06	1.6829941e-06	2.8651601e-09	0
    CmYaw:	-0.00016842219	-0.00016826368	-1.5850795e-07	0
    Cs:	0.00014566351	0.00014626256	-5.9904615e-07	0
    Cs(f):	-9.5590431e-05	-9.51324e-05	-4.5803103e-07	0
    Cs(r):	0.00024125394	0.00024139496	-1.4101513e-07	0

forceCoeffs forceCoeffs_cd write:
    Coefficient	Total	Pressure	Viscous	Internal
    Cd:	13.925174	13.84731	0.077864549	0
    Cd(f):	6.9625901	6.9236579	0.03893228	0
    Cd(r):	6.962584	6.9236517	0.038932269	0
    Cl:	0.001228056	0.0012285967	-5.4070591e-07	0
    Cl(f):	-0.00010210621	-9.9382167e-05	-2.724047e-06	0
    Cl(r):	0.0013301622	0.0013279789	2.1833411e-06	0
    CmPitch:	-0.00071613422	-0.00071368053	-2.4536941e-06	0
    CmRoll:	3.0694794e-06	3.0642627e-06	5.2166572e-09	0
    CmYaw:	-0.00030664982	-0.00030636122	-2.8859876e-07	0
    Cs:	0.00026521262	0.00026630332	-1.0906959e-06	0
    Cs(f):	-0.00017404351	-0.00017320956	-8.3394673e-07	0
    Cs(r):	0.00043925614	0.00043951288	-2.5674921e-07	0

forces force_computation write:
    Sum of forces
        Total    : (2071.6495 0.18269801 -0.039455708)
        Pressure : (2060.0656 0.18277845 -0.039617971)
        Viscous  : (11.583916 -8.0440869e-05 0.00016226294)
    Sum of moments
        Total    : (0.00067640114 -0.06757442 0.15780982)
        Pressure : (0.00067525158 -0.067510823 0.15726912)
        Viscous  : (1.1495607e-06 -6.3596625e-05 0.00054070455)
Time = 2

smoothSolver:  Solving for Ux, Initial residual = 0.21222346, Final residual = 0.0088627885, No Iterations 2
smoothSolver:  Solving for Uy, Initial residual = 0.53328832, Final residual = 0.021400231, No Iterations 2
smoothSolver:  Solving for Uz, Initial residual = 0.53262627, Final residual = 0.021552366, No Iterations 2
GAMG:  Solving for p, Initial residual = 0.013465274, Final residual = 0.00012894586, No Iterations 4
GAMG:  Solving for p, Initial residual = 0.0015488685, Final residual = 1.0640623e-05, No Iterations 3
GAMG:  Solving for p, Initial residual = 0.00020478638, Final residual = 1.7771713e-06, No Iterations 3
GAMG:  Solving for p, Initial residual = 3.8401821e-05, Final residual = 3.1940728e-07, No Iterations 3
GAMG:  Solving for p, Initial residual = 8.764134e-06, Final residual = 6.6480714e-08, No Iterations 3
GAMG:  Solving for p, Initial residual = 2.1928693e-06, Final residual = 3.861307e-08, No Iterations 2
time step continuity errors : sum local = 9.1141775e-07, global = 1.0605417e-07, cumulative = 7.9233618e-07
smoothSolver:  Solving for omega, Initial residual = 0.00036034242, Final residual = 2.7705052e-05, No Iterations 2
smoothSolver:  Solving for k, Initial residual = 0.081015894, Final residual = 0.004767103, No Iterations 2
ExecutionTime = 1.33 s  ClockTime = 2 s

forceCoeffs forceCoeffs_cl write:
    Coefficient	Total	Pressure	Viscous	Internal
    Cd:	7.1687592	7.1341382	0.034620995	0
    Cd(f):	3.5843781	3.5670676	0.017310512	0
    Cd(r):	3.5843811	3.5670706	0.017310483	0
    Cl:	0.0016139055	0.0016075399	6.3655207e-06	0
    Cl(f):	0.0003713696	0.0003687197	2.649899e-06	0
    Cl(r):	0.0012425359	0.0012388202	3.7156218e-06	0
    CmPitch:	-0.00043558314	-0.00043505027	-5.328614e-07	0
    CmRoll:	-1.4860768e-06	-1.5001727e-06	1.4095895e-08	0
    CmYaw:	-0.00019693459	-0.00019807619	1.1415982e-06	0
    Cs:	0.00011365282	0.0001139892	-3.3637611e-07	0
    Cs(f):	-0.00014010818	-0.00014108159	9.7341018e-07	0
    Cs(r):	0.000253761	0.00025507079	-1.3097863e-06	0

forceCoeffs forceCoeffs_cd write:
    Coefficient	Total	Pressure	Viscous	Internal
    Cd:	13.052311	12.989276	0.063035174	0
    Cd(f):	6.5261527	6.4946351	0.031517613	0
    Cd(r):	6.5261581	6.4946405	0.031517561	0
    Cl:	0.0029384716	0.0029268818	1.1589838e-05	0
    Cl(f):	0.00067616044	0.00067133571	4.8247268e-06	0
    Cl(r):	0.0022623112	0.0022555461	6.7651107e-06	0
    CmPitch:	-0.00079307538	-0.00079210519	-9.7019197e-07	0
    CmRoll:	-2.7057313e-06	-2.731396e-06	2.5664693e-08	0
    CmYaw:	-0.00035856295	-0.00036064148	2.0785319e-06	0
    Cs:	0.00020693008	0.00020754253	-6.1244706e-07	0
    Cs(f):	-0.00025509791	-0.00025687022	1.7723084e-06	0
    Cs(r):	0.00046202799	0.00046441275	-2.3847555e-06	0

forces force_computation write:
    Sum of forces
        Total    : (1941.7935 0.43715671 -0.030785008)
        Pressure : (1932.4158 0.43543249 -0.030876122)
        Viscous  : (9.3777489 0.0017242212 9.1113808e-05)
    Sum of moments
        Total    : (-0.00059624435 -0.079014177 0.17476485)
        Pressure : (-0.00060189991 -0.07947221 0.17455105)
        Viscous  : (5.6555609e-06 0.00045803251 0.00021379487)
Time = 3

smoothSolver:  Solving for Ux, Initial residual = 0.057664011, Final residual = 0.0024031952, No Iterations 2
smoothSolver:  Solving for Uy, Initial residual = 0.26038374, Final residual = 0.010507568, No Iterations 2
smoothSolver:  Solving for Uz, Initial residual = 0.2604771, Final residual = 0.010640441, No Iterations 2
GAMG:  Solving for p, Initial residual = 0.017749516, Final residual = 0.00015434134, No Iterations 5
GAMG:  Solving for p, Initial residual = 0.069385187, Final residual = 0.00043832033, No Iterations 3
GAMG:  Solving for p, Initial residual = 0.020451189, Final residual = 0.00019136094, No Iterations 3
GAMG:  Solving for p, Initial residual = 0.0055889686, Final residual = 5.3000653e-05, No Iterations 3
GAMG:  Solving for p, Initial residual = 0.0016967936, Final residual = 1.4745214e-05, No Iterations 3
GAMG:  Solving for p, Initial residual = 0.00051863904, Final residual = 4.3791007e-06, No Iterations 3
time step continuity errors : sum local = 2.7174384e-06, global = -1.3497157e-07, cumulative = 6.5736461e-07
smoothSolver:  Solving for omega, Initial residual = 0.0003796527, Final residual = 2.862067e-05, No Iterations 2
smoothSolver:  Solving for k, Initial residual = 0.027442905, Final residual = 0.0016448715, No Iterations 2
ExecutionTime = 1.84 s  ClockTime = 2 s

forceCoeffs forceCoeffs_cl write:
    Coefficient	Total	Pressure	Viscous	Internal
    Cd:	2.0470535	2.0193065	0.027746969	0
    Cd(f):	1.0235215	1.0096479	0.013873529	0
    Cd(r):	1.023532	1.0096586	0.013873439	0
    Cl:	0.00092837148	0.00092077383	7.5976482e-06	0
    Cl(f):	0.00033561844	0.00033049892	5.1195152e-06	0
    Cl(r):	0.00059275305	0.00059027491	2.478133e-06	0
    CmPitch:	-0.00012856731	-0.000129888	1.3206911e-06	0
    CmRoll:	-5.2669166e-06	-5.3119743e-06	4.5057704e-08	0
    CmYaw:	-0.00012237693	-0.00012499927	2.6223432e-06	0
    Cs:	5.7537191e-05	5.6615342e-05	9.2184856e-07	0
    Cs(f):	-9.3608331e-05	-9.6691598e-05	3.0832675e-06	0
    Cs(r):	0.00015114552	0.00015330694	-2.1614189e-06	0

forceCoeffs forceCoeffs_cd write:
    Coefficient	Total	Pressure	Viscous	Internal
    Cd:	3.7271133	3.6765938	0.05051949	0
    Cd(f):	1.8635471	1.8382872	0.025259827	0
    Cd(r):	1.8635663	1.8383066	0.025259663	0
    Cl:	0.0016903055	0.0016764723	1.3833198e-05	0
    Cl(f):	0.00061106755	0.00060174634	9.3212092e-06	0
    Cl(r):	0.001079238	0.001074726	4.5119889e-06	0
    CmPitch:	-0.0002340852	-0.00023648981	2.4046101e-06	0
    CmRoll:	-9.5895859e-06	-9.6716234e-06	8.203751e-08	0
    CmYaw:	-0.00022281425	-0.0002275888	4.7745554e-06	0
    Cs:	0.00010475917	0.00010308074	1.6784291e-06	0
    Cs(f):	-0.00017043466	-0.00017604843	5.61377e-06	0
    Cs(r):	0.00027519383	0.00027912917	-3.9353409e-06	0

forces force_computation write:
    Sum of forces
        Total    : (554.48301 0.25146691 -0.015585032)
        Pressure : (546.96722 0.24940894 -0.015335332)
        Viscous  : (7.5157894 0.0020579662 -0.00024970006)
    Sum of moments
        Total    : (-0.0021131945 -0.049100121 0.051583828)
        Pressure : (-0.0021312725 -0.050152258 0.052113716)
        Viscous  : (1.8078071e-05 0.0010521376 -0.00052988823)
Time = 4

smoothSolver:  Solving for Ux, Initial residual = 0.016227801, Final residual = 0.00066688987, No Iterations 2
smoothSolver:  Solving for Uy, Initial residual = 0.070362555, Final residual = 0.0024510223, No Iterations 2
smoothSolver:  Solving for Uz, Initial residual = 0.070908525, Final residual = 0.0025535932, No Iterations 2
GAMG:  Solving for p, Initial residual = 0.018518662, Final residual = 8.030846e-05, No Iterations 6
GAMG:  Solving for p, Initial residual = 0.010970478, Final residual = 5.4541681e-05, No Iterations 3
GAMG:  Solving for p, Initial residual = 0.0013971817, Final residual = 1.236145e-05, No Iterations 3
GAMG:  Solving for p, Initial residual = 0.00030780444, Final residual = 2.675262e-06, No Iterations 3
GAMG:  Solving for p, Initial residual = 8.3450869e-05, Final residual = 7.1336342e-07, No Iterations 3
GAMG:  Solving for p, Initial residual = 2.4363181e-05, Final residual = 1.9227076e-07, No Iterations 3
time step continuity errors : sum local = 1.8612607e-06, global = -3.9055335e-07, cumulative = 2.6681126e-07
smoothSolver:  Solving for omega, Initial residual = 0.00036555878, Final residual = 2.7063059e-05, No Iterations 2
smoothSolver:  Solving for k, Initial residual = 0.012626852, Final residual = 0.00076408251, No Iterations 2
ExecutionTime = 2.37 s  ClockTime = 3 s

forceCoeffs forceCoeffs_cl write:
    Coefficient	Total	Pressure	Viscous	Internal
    Cd:	-2.7600438	-2.784587	0.024543217	0
    Cd(f):	-1.380025	-1.3922967	0.012271642	0
    Cd(r):	-1.3800188	-1.3922904	0.012271575	0
    Cl:	-1.7280148e-05	-1.7921414e-05	6.4126555e-07	0
    Cl(f):	0.00016248169	0.00015895012	3.5315734e-06	0
    Cl(r):	-0.00017976184	-0.00017687153	-2.8903079e-06	0
    CmPitch:	0.00017112176	0.00016791082	3.2109406e-06	0
    CmRoll:	-3.1193619e-06	-3.1530928e-06	3.3730941e-08	0
    CmYaw:	8.4744272e-05	8.2396858e-05	2.3474139e-06	0
    Cs:	2.6164109e-05	2.3485803e-05	2.6783067e-06	0
    Cs(f):	9.7826326e-05	9.4139759e-05	3.6865672e-06	0
    Cs(r):	-7.1662217e-05	-7.0653957e-05	-1.0082606e-06	0

forceCoeffs forceCoeffs_cd write:
    Coefficient	Total	Pressure	Viscous	Internal
    Cd:	-5.0252699	-5.0699562	0.044686352	0
    Cd(f):	-2.5126406	-2.5349838	0.022343237	0
    Cd(r):	-2.5126292	-2.5349724	0.022343115	0
    Cl:	-3.146233e-05	-3.2629896e-05	1.1675657e-06	0
    Cl(f):	0.00029583383	0.00028940382	6.43001e-06	0
    Cl(r):	-0.00032729616	-0.00032203372	-5.2624443e-06	0
    CmPitch:	0.000311565	0.00030571877	5.8462272e-06	0
    CmRoll:	-5.6794879e-06	-5.7409025e-06	6.1414635e-08	0
    CmYaw:	0.00015429568	0.00015002169	4.2739859e-06	0
    Cs:	4.7637545e-05	4.2761095e-05	4.8764493e-06	0
    Cs(f):	0.00017811445	0.00017140224	6.7122106e-06	0
    Cs(r):	-0.00013047691	-0.00012864115	-1.8357612e-06	0

forces force_computation write:
    Sum of forces
        Total    : (-747.60988 -0.0046806538 -0.0070870421)
        Pressure : (-754.25787 -0.0048543527 -0.0063615722)
        Viscous  : (6.6479929 0.00017369886 -0.00072546983)
    Sum of moments
        Total    : (-0.0012515517 0.034001132 -0.068657545)
        Pressure : (-0.0012650852 0.033059301 -0.06736925)
        Viscous  : (1.3533542e-05 0.00094183038 -0.0012882949)
Time = 5

smoothSolver:  Solving for Ux, Initial residual = 0.019332883, Final residual = 0.00070322155, No Iterations 2
smoothSolver:  Solving for Uy, Initial residual = 0.13686595, Final residual = 0.005338058, No Iterations 2
smoothSolver:  Solving for Uz, Initial residual = 0.13807614, Final residual = 0.0053574315, No Iterations 2
GAMG:  Solving for p, Initial residual = 0.024262888, Final residual = 0.00012420151, No Iterations 5
GAMG:  Solving for p, Initial residual = 0.0048058232, Final residual = 2.3506381e-05, No Iterations 3
GAMG:  Solving for p, Initial residual = 0.00055630175, Final residual = 4.8271807e-06, No Iterations 3
GAMG:  Solving for p, Initial residual = 0.00010372486, Final residual = 9.0797414e-07, No Iterations 3
GAMG:  Solving for p, Initial residual = 2.4654974e-05, Final residual = 2.2028705e-07, No Iterations 3
GAMG:  Solving for p, Initial residual = 6.343108e-06, Final residual = 5.1962331e-08, No Iterations 3
time step continuity errors : sum local = 4.1457288e-07, global = -4.259822e-08, cumulative = 2.2421304e-07
smoothSolver:  Solving for omega, Initial residual = 0.00029527591, Final residual = 2.0616056e-05, No Iterations 2
smoothSolver:  Solving for k, Initial residual = 0.0071143536, Final residual = 0.00041416008, No Iterations 2
ExecutionTime = 2.89 s  ClockTime = 3 s

forceCoeffs forceCoeffs_cl write:
    Coefficient	Total	Pressure	Viscous	Internal
    Cd:	-4.0386913	-4.0640639	0.025372596	0
    Cd(f):	-2.0193418	-2.0320279	0.012686105	0
    Cd(r):	-2.0193495	-2.032036	0.012686491	0
    Cl:	-0.00023864868	-0.00024642386	7.7751806e-06	0
    Cl(f):	0.00012993977	0.00012656941	3.3703635e-06	0
    Cl(r):	-0.00036858846	-0.00037299327	4.404817e-06	0
    CmPitch:	0.00024926412	0.00024978134	-5.1722676e-07	0
    CmRoll:	3.8509278e-06	4.044128e-06	-1.9320014e-07	0
    CmYaw:	0.00027189675	0.00027228834	-3.9158644e-07	0
    Cs:	-0.00011843888	-0.000116758	-1.6808825e-06	0
    Cs(f):	0.00021267731	0.00021390934	-1.2320277e-06	0
    Cs(r):	-0.0003311162	-0.00033066734	-4.488548e-07	0

forceCoeffs forceCoeffs_cd write:
    Coefficient	Total	Pressure	Viscous	Internal
    Cd:	-7.3533303	-7.3995267	0.046196419	0
    Cd(f):	-3.6766581	-3.699756	0.023097858	0
    Cd(r):	-3.6766722	-3.6997707	0.023098561	0
    Cl:	-0.00043451268	-0.00044866912	1.4156435e-05	0
    Cl(f):	0.00023658408	0.00023044759	6.1364918e-06	0
    Cl(r):	-0.00067109676	-0.00067911671	8.0199431e-06	0
    CmPitch:	0.00045384042	0.00045478215	-9.4172566e-07	0
    CmRoll:	7.0114653e-06	7.3632289e-06	-3.5176357e-07	0
    CmYaw:	0.00049504815	0.00049576112	-7.1296967e-07	0
    Cs:	-0.00021564417	-0.00021258375	-3.0604181e-06	0
    Cs(f):	0.00038722606	0.00038946924	-2.2431787e-06	0
    Cs(r):	-0.00060287023	-0.00060205299	-8.1723938e-07	0

forces force_computation write:
    Sum of forces
        Total    : (-1093.9557 -0.064642493 0.032081404)
        Pressure : (-1100.8283 -0.066748547 0.031626105)
        Viscous  : (6.8726457 0.0021060542 0.0004552987)
    Sum of moments
        Total    : (0.0015450709 0.10909053 -0.10000985)
        Pressure : (0.0016225867 0.10924764 -0.10021737)
        Viscous  : (-7.7515841e-05 -0.00015711247 0.00020752194)
Time = 6

smoothSolver:  Solving for Ux, Initial residual = 0.031118792, Final residual = 0.001144989, No Iterations 2
smoothSolver:  Solving for Uy, Initial residual = 0.25053136, Final residual = 0.0099844314, No Iterations 2
smoothSolver:  Solving for Uz, Initial residual = 0.251877, Final residual = 0.010095163, No Iterations 2
GAMG:  Solving for p, Initial residual = 0.13505175, Final residual = 0.0007827891, No Iterations 5
GAMG:  Solving for p, Initial residual = 0.032316319, Final residual = 0.00018359932, No Iterations 3
GAMG:  Solving for p, Initial residual = 0.0051759368, Final residual = 4.5126359e-05, No Iterations 3
GAMG:  Solving for p, Initial residual = 0.0012407957, Final residual = 1.0970783e-05, No Iterations 3
GAMG:  Solving for p, Initial residual = 0.0003539729, Final residual = 2.9632076e-06, No Iterations 3
GAMG:  Solving for p, Initial residual = 0.00010560141, Final residual = 8.9050884e-07, No Iterations 3
time step continuity errors : sum local = 1.2509625e-06, global = 3.6856287e-07, cumulative = 5.9277591e-07
smoothSolver:  Solving for omega, Initial residual = 0.0002689113, Final residual = 1.724322e-05, No Iterations 2
smoothSolver:  Solving for k, Initial residual = 0.0049564374, Final residual = 0.00027868426, No Iterations 2
ExecutionTime = 3.42 s  ClockTime = 4 s

forceCoeffs forceCoeffs_cl write:
    Coefficient	Total	Pressure	Viscous	Internal
    Cd:	-2.0478674	-2.0764091	0.028541657	0
    Cd(f):	-1.0239228	-1.0381932	0.01427042	0
    Cd(r):	-1.0239446	-1.0382158	0.014271237	0
    Cl:	-0.00034159713	-0.00034499793	3.4008003e-06	0
    Cl(f):	-5.3673668e-05	-5.4651612e-05	9.7794318e-07	0
    Cl(r):	-0.00028792346	-0.00029034632	2.4228572e-06	0
    CmPitch:	0.0001171249	0.00011784735	-7.2245699e-07	0
    CmRoll:	1.0888789e-05	1.1297303e-05	-4.0851349e-07	0
    CmYaw:	0.00024064202	0.00024586826	-5.2262394e-06	0
    Cs:	-0.0001117176	-0.00011301426	1.2966594e-06	0
    Cs(f):	0.00018478322	0.00018936113	-4.5779097e-06	0
    Cs(r):	-0.00029650082	-0.00030237539	5.8745691e-06	0

forceCoeffs forceCoeffs_cd write:
    Coefficient	Total	Pressure	Viscous	Internal
    Cd:	-3.7285953	-3.7805617	0.051966395	0
    Cd(f):	-1.8642778	-1.8902603	0.025982454	0
    Cd(r):	-1.8643175	-1.8903014	0.025983941	0
    Cl:	-0.00062195309	-0.000628145	6.1919088e-06	0
    Cl(f):	-9.7724778e-05	-9.950534e-05	1.7805617e-06	0
    Cl(r):	-0.00052422831	-0.00052863966	4.411347e-06	0
    CmPitch:	0.00021325177	0.00021456716	-1.3153926e-06	0
    CmRoll:	1.9825447e-05	2.0569237e-05	-7.4378911e-07	0
    CmYaw:	0.00043814199	0.00044765751	-9.515524e-06	0
    Cs:	-0.00020340659	-0.00020576745	2.3608551e-06	0
    Cs(f):	0.00033643869	0.00034477379	-8.3350965e-06	0
    Cs(r):	-0.00053984529	-0.00055054124	1.0695952e-05	0

forces force_computation write:
    Sum of forces
        Total    : (-554.70349 -0.092528021 0.030260818)
        Pressure : (-562.43453 -0.093449191 0.030612043)
        Viscous  : (7.7310456 0.00092117086 -0.00035122464)
    Sum of moments
        Total    : (0.0043688044 0.096550491 -0.0469929)
        Pressure : (0.0045327084 0.098647364 -0.047282764)
        Viscous  : (-0.00016390395 -0.0020968739 0.00028986449)
Time = 7

smoothSolver:  Solving for Ux, Initial residual = 0.025881341, Final residual = 0.00091784502, No Iterations 2
smoothSolver:  Solving for Uy, Initial residual = 0.17437137, Final residual = 0.0068304162, No Iterations 2
smoothSolver:  Solving for Uz, Initial residual = 0.17620477, Final residual = 0.0070699352, No Iterations 2
GAMG:  Solving for p, Initial residual = 0.26383737, Final residual = 0.0018151463, No Iterations 5
GAMG:  Solving for p, Initial residual = 0.013101413, Final residual = 7.6466931e-05, No Iterations 3
GAMG:  Solving for p, Initial residual = 0.0016792306, Final residual = 1.5423819e-05, No Iterations 3
GAMG:  Solving for p, Initial residual = 0.00037568402, Final residual = 3.2452827e-06, No Iterations 3
GAMG:  Solving for p, Initial residual = 0.0001010419, Final residual = 8.563079e-07, No Iterations 3
GAMG:  Solving for p, Initial residual = 2.951615e-05, Final residual = 2.3273027e-07, No Iterations 3
time step continuity errors : sum local = 1.2248025e-06, global = 3.5930554e-07, cumulative = 9.5208145e-07
smoothSolver:  Solving for omega, Initial residual = 0.00023724847, Final residual = 1.5384036e-05, No Iterations 2
smoothSolver:  Solving for k, Initial residual = 0.0036453666, Final residual = 0.00020538669, No Iterations 2
ExecutionTime = 3.93 s  ClockTime = 4 s

forceCoeffs forceCoeffs_cl write:
    Coefficient	Total	Pressure	Viscous	Internal
    Cd:	0.73729733	0.7065581	0.030739228	0
    Cd(f):	0.36866235	0.35329354	0.015368805	0
    Cd(r):	0.36863498	0.35326456	0.015370424	0
    Cl:	-0.00017310743	-0.00016892436	-4.1830651e-06	0
    Cl(f):	-7.3205284e-05	-7.0656111e-05	-2.5491724e-06	0
    Cl(r):	-9.9902144e-05	-9.8268251e-05	-1.6338928e-06	0
    CmPitch:	1.334843e-05	1.380607e-05	-4.5763981e-07	0
    CmRoll:	1.3681871e-05	1.4491555e-05	-8.0968363e-07	0
    CmYaw:	0.00013807558	0.00014540361	-7.3280336e-06	0
    Cs:	3.7827476e-05	4.1033251e-05	-3.2057744e-06	0
    Cs(f):	0.00015698932	0.00016592024	-8.9309208e-06	0
    Cs(r):	-0.00011916184	-0.00012488699	5.7251464e-06	0

forceCoeffs forceCoeffs_cd write:
    Coefficient	Total	Pressure	Viscous	Internal
    Cd:	1.3424128	1.2864452	0.05596756	0
    Cd(f):	0.67123129	0.64324899	0.027982306	0
    Cd(r):	0.67118147	0.64319622	0.027985254	0
    Cl:	-0.00031518034	-0.00030756414	-7.6161948e-06	0
    Cl(f):	-0.0001332864	-0.00012864507	-4.6413318e-06	0
    Cl(r):	-0.00018189394	-0.00017891907	-2.9748629e-06	0
    CmPitch:	2.4303768e-05	2.5137002e-05	-8.3323443e-07	0
    CmRoll:	2.4910871e-05	2.6385079e-05	-1.474208e-06	0
    CmYaw:	0.00025139712	0.00026473942	-1.3342305e-05	0
    Cs:	6.8873282e-05	7.4710103e-05	-5.8368209e-06	0
    Cs(f):	0.00028583376	0.00030209447	-1.6260715e-05	0
    Cs(r):	-0.00021696047	-0.00022738437	1.0423895e-05	0

forces force_computation write:
    Sum of forces
        Total    : (199.71088 -0.046889409 -0.010246285)
        Pressure : (191.38458 -0.045756347 -0.011114629)
        Viscous  : (8.3262993 -0.001133062 0.0008683444)
    Sum of moments
        Total    : (0.005489446 0.055398741 -0.0053556626)
        Pressure : (0.0058143076 0.058338898 -0.005539277)
        Viscous  : (-0.0003248616 -0.0029401567 0.00018361443)
Time = 8

smoothSolver:  Solving for Ux, Initial residual = 0.01960407, Final residual = 0.00059563349, No Iterations 2
smoothSolver:  Solving for Uy, Initial residual = 0.14153634, Final residual = 0.0050588913, No Iterations 2
smoothSolver:  Solving for Uz, Initial residual = 0.14206169, Final residual = 0.0051020487, No Iterations 2
GAMG:  Solving for p, Initial residual = 0.072357793, Final residual = 0.00034707606, No Iterations 5
GAMG:  Solving for p, Initial residual = 0.0039092529, Final residual = 2.1513468e-05, No Iterations 3
GAMG:  Solving for p, Initial residual = 0.00048363412, Final residual = 4.1964769e-06, No Iterations 3
GAMG:  Solving for p, Initial residual = 9.9599529e-05, Final residual = 8.265735e-07, No Iterations 3
GAMG:  Solving for p, Initial residual = 2.4575073e-05, Final residual = 2.0366493e-07, No Iterations 3
GAMG:  Solving for p, Initial residual = 6.6885389e-06, Final residual = 5.1015342e-08, No Iterations 3
time step continuity errors : sum local = 4.5227383e-07, global = 1.238036e-07, cumulative = 1.075885e-06
smoothSolver:  Solving for omega, Initial residual = 0.00020386222, Final residual = 1.350805e-05, No Iterations 2
smoothSolver:  Solving for k, Initial residual = 0.0027720816, Final residual = 0.00015910409, No Iterations 2
ExecutionTime = 4.45 s  ClockTime = 5 s

forceCoeffs forceCoeffs_cl write:
    Coefficient	Total	Pressure	Viscous	Internal
    Cd:	2.2059343	2.1752215	0.030712799	0
    Cd(f):	1.1029725	1.0876167	0.015355827	0
    Cd(r):	1.1029618	1.0876048	0.015356971	0
    Cl:	0.00016662669	0.00017189824	-5.2715466e-06	0
    Cl(f):	4.0790652e-05	4.0435497e-05	3.5515501e-07	0
    Cl(r):	0.00012583604	0.00013146274	-5.6267016e-06	0
    CmPitch:	-4.2522693e-05	-4.5513621e-05	2.9909283e-06	0
    CmRoll:	5.3553861e-06	5.9274447e-06	-5.7205861e-07	0
    CmYaw:	1.3289875e-05	1.8187094e-05	-4.8972191e-06	0
    Cs:	0.00019297526	0.00019855412	-5.5788593e-06	0
    Cs(f):	0.00010977751	0.00011746416	-7.6866488e-06	0
    Cs(r):	8.3197757e-05	8.1089967e-05	2.1077895e-06	0

forceCoeffs forceCoeffs_cd write:
    Coefficient	Total	Pressure	Viscous	Internal
    Cd:	4.016391	3.9604716	0.055919439	0
    Cd(f):	2.0082053	1.9802466	0.027958678	0
    Cd(r):	2.0081858	1.980225	0.027960761	0
    Cl:	0.00030338072	0.00031297874	-9.5980158e-06	0
    Cl(f):	7.4268399e-05	7.3621761e-05	6.4663821e-07	0
    Cl(r):	0.00022911232	0.00023935698	-1.0244654e-05	0
    CmPitch:	-7.7421962e-05	-8.2867608e-05	5.4456461e-06	0
    CmRoll:	9.7506643e-06	1.0792223e-05	-1.0415592e-06	0
    CmYaw:	2.4197156e-05	3.3113626e-05	-8.91647e-06	0
    Cs:	0.00035135413	0.00036151167	-1.0157547e-05	0
    Cs(f):	0.00019987422	0.00021386946	-1.3995243e-05	0
    Cs(r):	0.00015147991	0.00014764221	3.8376966e-06	0

forces force_computation write:
    Sum of forces
        Total    : (597.51888 0.045133979 -0.052270987)
        Pressure : (589.19974 0.046561877 -0.053782126)
        Viscous  : (8.3191403 -0.0014278977 0.0015111392)
    Sum of moments
        Total    : (0.0021486902 0.0053321693 0.017060972)
        Pressure : (0.0023782118 0.0072970335 0.018260994)
        Viscous  : (-0.00022952159 -0.0019648643 -0.0012000215)
Time = 9

smoothSolver:  Solving for Ux, Initial residual = 0.024859312, Final residual = 0.00089415516, No Iterations 2
smoothSolver:  Solving for Uy, Initial residual = 0.14739786, Final residual = 0.0056380415, No Iterations 2
smoothSolver:  Solving for Uz, Initial residual = 0.14784992, Final residual = 0.0055815418, No Iterations 2
GAMG:  Solving for p, Initial residual = 0.032594143, Final residual = 0.00028129292, No Iterations 4
GAMG:  Solving for p, Initial residual = 0.0028725085, Final residual = 1.9961745e-05, No Iterations 3
GAMG:  Solving for p, Initial residual = 0.00037662524, Final residual = 3.1546161e-06, No Iterations 3
GAMG:  Solving for p, Initial residual = 7.203054e-05, Final residual = 6.5071755e-07, No Iterations 3
GAMG:  Solving for p, Initial residual = 1.8714814e-05, Final residual = 1.5352763e-07, No Iterations 3
GAMG:  Solving for p, Initial residual = 5.1480103e-06, Final residual = 9.9183985e-08, No Iterations 2
time step continuity errors : sum local = 9.1550208e-07, global = -6.2801166e-08, cumulative = 1.0130839e-06
smoothSolver:  Solving for omega, Initial residual = 0.00018841316, Final residual = 1.3013755e-05, No Iterations 2
smoothSolver:  Solving for k, Initial residual = 0.0024117354, Final residual = 0.00013889476, No Iterations 2
ExecutionTime = 4.95 s  ClockTime = 5 s

forceCoeffs forceCoeffs_cl write:
    Coefficient	Total	Pressure	Viscous	Internal
    Cd:	1.8128665	1.7845667	0.028299785	0
    Cd(f):	0.90642426	0.89227472	0.014149535	0
    Cd(r):	0.90644221	0.89229196	0.01415025	0
    Cl:	0.00031035608	0.00030514274	5.213339e-06	0
    Cl(f):	7.7405386e-05	7.3508923e-05	3.896463e-06	0
    Cl(r):	0.00023295069	0.00023163381	1.316876e-06	0
    CmPitch:	-7.7772652e-05	-7.9062445e-05	1.2897935e-06	0
    CmRoll:	-8.9778421e-06	-8.6205766e-06	-3.5726545e-07	0
    CmYaw:	-0.00012589911	-0.00012349497	-2.4041331e-06	0
    Cs:	0.00039194367	0.00040057398	-8.6303125e-06	0
    Cs(f):	7.0072727e-05	7.6792016e-05	-6.7192894e-06	0
    Cs(r):	0.00032187094	0.00032378196	-1.9110232e-06	0

forceCoeffs forceCoeffs_cd write:
    Coefficient	Total	Pressure	Viscous	Internal
    Cd:	3.3007241	3.2491981	0.051526014	0
    Cd(f):	1.6503457	1.6245834	0.025762357	0
    Cd(r):	1.6503784	1.6246148	0.025763658	0
    Cl:	0.00056507184	0.0005555798	9.4920361e-06	0
    Cl(f):	0.00014093362	0.00013383924	7.0943722e-06	0
    Cl(r):	0.00042413822	0.00042174056	2.3976639e-06	0
    CmPitch:	-0.0001416023	-0.00014395066	2.3483541e-06	0
    CmRoll:	-1.6346146e-05	-1.5695665e-05	-6.5048073e-07	0
    CmYaw:	-0.00022922715	-0.0002248499	-4.3772558e-06	0
    Cs:	0.00071362009	0.00072933348	-1.5713392e-05	0
    Cs(f):	0.00012758289	0.00013981684	-1.2233952e-05	0
    Cs(r):	0.0005860372	0.00058951664	-3.4794401e-06	0

forces force_computation write:
    Sum of forces
        Total    : (491.04905 0.084065792 -0.10616533)
        Pressure : (483.38352 0.082653661 -0.10850301)
        Viscous  : (7.6655301 0.0014121311 0.0023376828)
    Sum of moments
        Total    : (-0.0036020935 -0.050513292 0.031203975)
        Pressure : (-0.0034587513 -0.049548705 0.031721467)
        Viscous  : (-0.00014334219 -0.00096458728 -0.00051749147)
Time = 10

smoothSolver:  Solving for Ux, Initial residual = 0.016852698, Final residual = 0.00062366178, No Iterations 2
smoothSolver:  Solving for Uy, Initial residual = 0.084316166, Final residual = 0.0032458453, No Iterations 2
smoothSolver:  Solving for Uz, Initial residual = 0.085154513, Final residual = 0.003277462, No Iterations 2
GAMG:  Solving for p, Initial residual = 0.026054887, Final residual = 0.0001377638, No Iterations 5
GAMG:  Solving for p, Initial residual = 0.0050844699, Final residual = 2.6703292e-05, No Iterations 3
GAMG:  Solving for p, Initial residual = 0.00072943404, Final residual = 6.1167295e-06, No Iterations 3
GAMG:  Solving for p, Initial residual = 0.00017141939, Final residual = 1.4155342e-06, No Iterations 3
GAMG:  Solving for p, Initial residual = 4.8688509e-05, Final residual = 3.8468611e-07, No Iterations 3
GAMG:  Solving for p, Initial residual = 1.4517571e-05, Final residual = 1.120976e-07, No Iterations 3
time step continuity errors : sum local = 8.0615643e-07, global = -2.0856824e-07, cumulative = 8.0451564e-07
smoothSolver:  Solving for omega, Initial residual = 0.0001850207, Final residual = 1.3210345e-05, No Iterations 2
smoothSolver:  Solving for k, Initial residual = 0.0021552656, Final residual = 0.00012739608, No Iterations 2
ExecutionTime = 5.47 s  ClockTime = 6 s

forceCoeffs forceCoeffs_cl write:
    Coefficient	Total	Pressure	Viscous	Internal
    Cd:	0.46446393	0.43974353	0.0247204	0
    Cd(f):	0.23221634	0.21985617	0.012360167	0
    Cd(r):	0.23224759	0.21988736	0.012360233	0
    Cl:	0.0004050919	0.00039081351	1.4278395e-05	0
    Cl(f):	0.00017255507	0.00016386509	8.6899795e-06	0
    Cl(r):	0.00023253684	0.00022694842	5.5884153e-06	0
    CmPitch:	-2.9990884e-05	-3.1541666e-05	1.5507821e-06	0
    CmRoll:	-1.562408e-05	-1.5591296e-05	-3.2783845e-08	0
    CmYaw:	-0.00012966528	-0.0001288535	-8.1178121e-07	0
    Cs:	0.0002463893	0.00024795302	-1.563718e-06	0
    Cs(f):	-6.4706328e-06	-4.8769926e-06	-1.5936402e-06	0
    Cs(r):	0.00025285993	0.00025283001	2.9922201e-08	0

forceCoeffs forceCoeffs_cd write:
    Coefficient	Total	Pressure	Viscous	Internal
    Cd:	0.84565925	0.8006503	0.045008952	0
    Cd(f):	0.42280118	0.40029676	0.022504416	0
    Cd(r):	0.42285807	0.40035354	0.022504536	0
    Cl:	0.00073755935	0.00071156238	2.5996974e-05	0
    Cl(f):	0.00031417464	0.00029835262	1.5822029e-05	0
    Cl(r):	0.00042338471	0.00041320977	1.0174945e-05	0
    CmPitch:	-5.4605034e-05	-5.7428575e-05	2.8235417e-06	0
    CmRoll:	-2.8447091e-05	-2.8387401e-05	-5.9690236e-08	0
    CmYaw:	-0.00023608431	-0.00023460628	-1.4780271e-06	0
    Cs:	0.00044860619	0.00045145328	-2.8470943e-06	0
    Cs(f):	-1.1781217e-05	-8.8796431e-06	-2.9015743e-06	0
    Cs(r):	0.00046038741	0.00046033293	5.4479981e-08	0

forces force_computation write:
    Sum of forces
        Total    : (125.80881 0.10972678 -0.066739185)
        Pressure : (119.11282 0.1058592 -0.067162748)
        Viscous  : (6.6959861 0.0038675723 0.00042356249)
    Sum of moments
        Total    : (-0.0062686999 -0.052024359 0.012032955)
        Pressure : (-0.0062555463 -0.051698656 0.01265516)
        Viscous  : (-1.3153548e-05 -0.00032570319 -0.00062220544)
Time = 11

smoothSolver:  Solving for Ux, Initial residual = 0.0084985547, Final residual = 0.00029624177, No Iterations 2
smoothSolver:  Solving for Uy, Initial residual = 0.049430896, Final residual = 0.001536592, No Iterations 2
smoothSolver:  Solving for Uz, Initial residual = 0.050822512, Final residual = 0.0015744221, No Iterations 2
GAMG:  Solving for p, Initial residual = 0.018570887, Final residual = 9.1719161e-05, No Iterations 5
GAMG:  Solving for p, Initial residual = 0.0062528872, Final residual = 3.1856022e-05, No Iterations 3
GAMG:  Solving for p, Initial residual = 0.0009662357, Final residual = 7.3353572e-06, No Iterations 3
GAMG:  Solving for p, Initial residual = 0.00021865416, Final residual = 1.6244896e-06, No Iterations 3
GAMG:  Solving for p, Initial residual = 5.9426396e-05, Final residual = 4.2821077e-07, No Iterations 3
GAMG:  Solving for p, Initial residual = 1.7009299e-05, Final residual = 1.1744128e-07, No Iterations 3
time step continuity errors : sum local = 5.0542053e-07, global = -9.961227e-08, cumulative = 7.0490337e-07
smoothSolver:  Solving for omega, Initial residual = 0.00017619551, Final residual = 1.3126317e-05, No Iterations 2
smoothSolver:  Solving for k, Initial residual = 0.0018307367, Final residual = 0.00011039297, No Iterations 2
ExecutionTime = 5.98 s  ClockTime = 6 s

forceCoeffs forceCoeffs_cl write:
    Coefficient	Total	Pressure	Viscous	Internal
    Cd:	-0.61145757	-0.63405141	0.022593836	0
    Cd(f):	-0.30573896	-0.31703585	0.011296891	0
    Cd(r):	-0.30571861	-0.31701555	0.011296945	0
    Cl:	0.00016560383	0.000148458	1.7145826e-05	0
    Cl(f):	9.2148205e-05	8.4233165e-05	7.9150407e-06	0
    Cl(r):	7.3455623e-05	6.4224838e-05	9.2307852e-06	0
    CmPitch:	9.3462911e-06	1.0004163e-05	-6.5787225e-07	0
    CmRoll:	-1.0177552e-05	-1.0150832e-05	-2.6720364e-08	0
    CmYaw:	-9.2365515e-05	-9.3243846e-05	8.7833115e-07	0
    Cs:	2.5015993e-05	2.8159238e-05	-3.1432444e-06	0
    Cs(f):	-7.9857518e-05	-7.9164227e-05	-6.9329104e-07	0
    Cs(r):	0.00010487351	0.00010732346	-2.4499533e-06	0

forceCoeffs forceCoeffs_cd write:
    Coefficient	Total	Pressure	Viscous	Internal
    Cd:	-1.1132937	-1.1544307	0.041137072	0
    Cd(f):	-0.55666536	-0.57723385	0.020568488	0
    Cd(r):	-0.5566283	-0.57719689	0.020568585	0
    Cl:	0.00030151838	0.00027030061	3.1217766e-05	0
    Cl(f):	0.00016777618	0.0001533651	1.4411081e-05	0
    Cl(r):	0.0001337422	0.00011693551	1.6806685e-05	0
    CmPitch:	1.7016989e-05	1.8214791e-05	-1.1978018e-06	0
    CmRoll:	-1.8530483e-05	-1.8481833e-05	-4.8650329e-08	0
    CmYaw:	-0.00016817184	-0.00016977103	1.599196e-06	0
    Cs:	4.5547145e-05	5.1270117e-05	-5.7229712e-06	0
    Cs(f):	-0.00014539826	-0.00014413598	-1.2622896e-06	0
    Cs(r):	0.00019094541	0.00019540609	-4.4606816e-06	0

forces force_computation write:
    Sum of forces
        Total    : (-165.62481 0.044856918 -0.0067760532)
        Pressure : (-171.74477 0.040212648 -0.0076274602)
        Viscous  : (6.1199662 0.00464427 0.00085140697)
    Sum of moments
        Total    : (-0.0040834416 -0.03705893 -0.0037499228)
        Pressure : (-0.0040727209 -0.037411334 -0.0040138745)
        Viscous  : (-1.0720755e-05 0.00035240439 0.00026395177)
Time = 12

smoothSolver:  Solving for Ux, Initial residual = 0.0086828364, Final residual = 0.00029225975, No Iterations 2
smoothSolver:  Solving for Uy, Initial residual = 0.083595857, Final residual = 0.002941842, No Iterations 2
smoothSolver:  Solving for Uz, Initial residual = 0.084086269, Final residual = 0.0029070133, No Iterations 2
GAMG:  Solving for p, Initial residual = 0.018531052, Final residual = 0.00010799753, No Iterations 4
GAMG:  Solving for p, Initial residual = 0.0075430768, Final residual = 4.2994278e-05, No Iterations 3
GAMG:  Solving for p, Initial residual = 0.0010344871, Final residual = 7.5680337e-06, No Iterations 3
GAMG:  Solving for p, Initial residual = 0.00020494548, Final residual = 1.5231355e-06, No Iterations 3
GAMG:  Solving for p, Initial residual = 4.9173909e-05, Final residual = 3.5476616e-07, No Iterations 3
GAMG:  Solving for p, Initial residual = 1.2745755e-05, Final residual = 9.8115757e-08, No Iterations 3
time step continuity errors : sum local = 1.8953962e-07, global = -1.9721197e-08, cumulative = 6.8518217e-07
smoothSolver:  Solving for omega, Initial residual = 0.00016453251, Final residual = 1.2313716e-05, No Iterations 2
smoothSolver:  Solving for k, Initial residual = 0.0015553447, Final residual = 9.5321231e-05, No Iterations 2
ExecutionTime = 6.5 s  ClockTime = 7 s

forceCoeffs forceCoeffs_cl write:
    Coefficient	Total	Pressure	Viscous	Internal
    Cd:	-0.78981027	-0.81180753	0.02199726	0
    Cd(f):	-0.39490328	-0.40590191	0.010998627	0
    Cd(r):	-0.39490698	-0.40590562	0.010998633	0
    Cl:	0.00014078826	0.00013006978	1.0718483e-05	0
    Cl(f):	0.00011184141	0.00010670452	5.1368937e-06	0
    Cl(r):	2.8946854e-05	2.3365266e-05	5.5815888e-06	0
    CmPitch:	4.1447278e-05	4.1669626e-05	-2.2234754e-07	0
    CmRoll:	1.8511713e-06	1.8541546e-06	-2.9832332e-09	0
    CmYaw:	-3.4568271e-05	-3.5144079e-05	5.7580782e-07	0
    Cs:	-0.00011672451	-0.00011099288	-5.7316217e-06	0
    Cs(f):	-9.2930524e-05	-9.0640521e-05	-2.290003e-06	0
    Cs(r):	-2.3793982e-05	-2.0352364e-05	-3.4416187e-06	0

forceCoeffs forceCoeffs_cd write:
    Coefficient	Total	Pressure	Viscous	Internal
    Cd:	-1.4380242	-1.4780751	0.040050874	0
    Cd(f):	-0.71900872	-0.73903415	0.020025432	0
    Cd(r):	-0.71901546	-0.7390409	0.020025442	0
    Cl:	0.00025633616	0.00023682079	1.9515367e-05	0
    Cl(f):	0.00020363201	0.00019427916	9.3528506e-06	0
    Cl(r):	5.2704147e-05	4.2541631e-05	1.0162516e-05	0
    CmPitch:	7.5463932e-05	7.5868764e-05	-4.0483284e-07	0
    CmRoll:	3.3704666e-06	3.3758983e-06	-5.4316355e-09	0
    CmYaw:	-6.2939179e-05	-6.3987564e-05	1.0483854e-06	0
    Cs:	-0.00021252277	-0.00020208708	-1.0435684e-05	0
    Cs(f):	-0.00016920056	-0.00016503111	-4.1694567e-06	0
    Cs(r):	-4.3322204e-05	-3.7055977e-05	-6.2662276e-06	0

forces force_computation write:
    Sum of forces
        Total    : (-213.93499 0.038135155 0.031617032)
        Pressure : (-219.89337 0.035231852 0.030064515)
        Viscous  : (5.9583723 0.002903303 0.0015525177)
    Sum of moments
        Total    : (0.00074272773 -0.013869496 -0.016629494)
        Pressure : (0.00074392466 -0.014100522 -0.016718704)
        Viscous  : (-1.1969341e-06 0.00023102585 8.9210371e-05)
Time = 13

smoothSolver:  Solving for Ux, Initial residual = 0.0086737103, Final residual = 0.00029023563, No Iterations 2
smoothSolver:  Solving for Uy, Initial residual = 0.079469441, Final residual = 0.002986485, No Iterations 2
smoothSolver:  Solving for Uz, Initial residual = 0.079072292, Final residual = 0.0029303035, No Iterations 2
GAMG:  Solving for p, Initial residual = 0.023537427, Final residual = 0.00022925929, No Iterations 4
GAMG:  Solving for p, Initial residual = 0.018955717, Final residual = 0.00012384959, No Iterations 3
GAMG:  Solving for p, Initial residual = 0.0025322542, Final residual = 2.1142572e-05, No Iterations 3
GAMG:  Solving for p, Initial residual = 0.00056573179, Final residual = 4.2112406e-06, No Iterations 3
GAMG:  Solving for p, Initial residual = 0.00014931344, Final residual = 1.0514695e-06, No Iterations 3
GAMG:  Solving for p, Initial residual = 4.3438162e-05, Final residual = 2.9182529e-07, No Iterations 3
time step continuity errors : sum local = 3.6507577e-07, global = 8.3810986e-08, cumulative = 7.6899316e-07
smoothSolver:  Solving for omega, Initial residual = 0.00015474092, Final residual = 1.1493345e-05, No Iterations 2
smoothSolver:  Solving for k, Initial residual = 0.0013179303, Final residual = 8.2201083e-05, No Iterations 2
ExecutionTime = 7 s  ClockTime = 7 s

forceCoeffs forceCoeffs_cl write:
    Coefficient	Total	Pressure	Viscous	Internal
    Cd:	-0.26736126	-0.2897316	0.022370341	0
    Cd(f):	-0.13367021	-0.14485531	0.011185096	0
    Cd(r):	-0.13369105	-0.1448763	0.011185245	0
    Cl:	0.00020720943	0.00020298136	4.2280785e-06	0
    Cl(f):	0.00013497337	0.00013215411	2.8192614e-06	0
    Cl(r):	7.2236067e-05	7.082725e-05	1.4088171e-06	0
    CmPitch:	3.1368649e-05	3.0663427e-05	7.0522218e-07	0
    CmRoll:	1.0419295e-05	1.0493614e-05	-7.431883e-08	0
    CmYaw:	8.4376049e-06	8.9718438e-06	-5.3423893e-07	0
    Cs:	-0.00010450922	-0.00010005371	-4.4555037e-06	0
    Cs(f):	-4.3817003e-05	-4.1055012e-05	-2.7619908e-06	0
    Cs(r):	-6.0692212e-05	-5.89987e-05	-1.6935129e-06	0

forceCoeffs forceCoeffs_cd write:
    Coefficient	Total	Pressure	Viscous	Internal
    Cd:	-0.48679028	-0.52752043	0.040730151	0
    Cd(f):	-0.24337617	-0.26374111	0.02036494	0
    Cd(r):	-0.24341411	-0.26377932	0.020365211	0
    Cl:	0.00037727058	0.00036957243	7.6981515e-06	0
    Cl(f):	0.00024574885	0.00024061576	5.1330886e-06	0
    Cl(r):	0.00013152173	0.00012895667	2.5650629e-06	0
    CmPitch:	5.711356e-05	5.5829548e-05	1.2840129e-06	0
    CmRoll:	1.897063e-05	1.9105944e-05	-1.3531386e-07	0
    CmYaw:	1.5362525e-05	1.6335225e-05	-9.7270006e-07	0
    Cs:	-0.00019028213	-0.0001821699	-8.1122294e-06	0
    Cs(f):	-7.9778539e-05	-7.4749724e-05	-5.0288148e-06	0
    Cs(r):	-0.00011050359	-0.00010742017	-3.0834146e-06	0

forces force_computation write:
    Sum of forces
        Total    : (-72.419836 0.05612658 0.02830829)
        Pressure : (-78.479265 0.054981325 0.027101433)
        Viscous  : (6.0594285 0.0011452547 0.0012068571)
    Sum of moments
        Total    : (0.0041804339 0.0033853393 -0.012585743)
        Pressure : (0.0042102521 0.0035996869 -0.012302793)
        Viscous  : (-2.9818232e-05 -0.00021434756 -0.00028294954)
Time = 14

smoothSolver:  Solving for Ux, Initial residual = 0.00654896, Final residual = 0.00021178465, No Iterations 2
smoothSolver:  Solving for Uy, Initial residual = 0.048961908, Final residual = 0.0018631017, No Iterations 2
smoothSolver:  Solving for Uz, Initial residual = 0.049039336, Final residual = 0.0018436609, No Iterations 2
GAMG:  Solving for p, Initial residual = 0.025870502, Final residual = 0.00010983843, No Iterations 5
GAMG:  Solving for p, Initial residual = 0.0084454762, Final residual = 3.9373258e-05, No Iterations 3
GAMG:  Solving for p, Initial residual = 0.0011490771, Final residual = 8.2627816e-06, No Iterations 3
GAMG:  Solving for p, Initial residual = 0.00027434509, Final residual = 1.8187712e-06, No Iterations 3
GAMG:  Solving for p, Initial residual = 7.4497415e-05, Final residual = 4.9989211e-07, No Iterations 3
GAMG:  Solving for p, Initial residual = 2.2484749e-05, Final residual = 1.3619626e-07, No Iterations 3
time step continuity errors : sum local = 3.3355679e-07, global = 9.0479012e-08, cumulative = 8.5947217e-07
smoothSolver:  Solving for omega, Initial residual = 0.000141972, Final residual = 1.0559847e-05, No Iterations 2
smoothSolver:  Solving for k, Initial residual = 0.0011306655, Final residual = 7.1761564e-05, No Iterations 2
ExecutionTime = 7.52 s  ClockTime = 8 s

forceCoeffs forceCoeffs_cl write:
    Coefficient	Total	Pressure	Viscous	Internal
    Cd:	0.35318911	0.33031767	0.022871438	0
    Cd(f):	0.17660453	0.16516892	0.011435609	0
    Cd(r):	0.17658458	0.16514875	0.011435829	0
    Cl:	0.00033871747	0.00033671541	2.0020627e-06	0
    Cl(f):	0.00018685028	0.00018436361	2.4866733e-06	0
    Cl(r):	0.00015186719	0.0001523518	-4.8461056e-07	0
    CmPitch:	1.7491545e-05	1.6005903e-05	1.4856419e-06	0
    CmRoll:	9.9782331e-06	1.0088252e-05	-1.1001853e-07	0
    CmYaw:	2.1483423e-05	2.2660278e-05	-1.1768549e-06	0
    Cs:	1.7426153e-07	3.9223643e-06	-3.7481028e-06	0
    Cs(f):	2.1570554e-05	2.4621461e-05	-3.0509063e-06	0
    Cs(r):	-2.1396293e-05	-2.0699096e-05	-6.971965e-07	0

forceCoeffs forceCoeffs_cd write:
    Coefficient	Total	Pressure	Viscous	Internal
    Cd:	0.64305885	0.60141634	0.041642509	0
    Cd(f):	0.32154759	0.30072654	0.020821054	0
    Cd(r):	0.32151126	0.3006898	0.020821455	0
    Cl:	0.00061671002	0.00061306483	3.6451977e-06	0
    Cl(f):	0.00034020224	0.0003356747	4.5275384e-06	0
    Cl(r):	0.00027650779	0.00027739013	-8.8234065e-07	0
    CmPitch:	3.1847225e-05	2.9142285e-05	2.7049395e-06	0
    CmRoll:	1.8167579e-05	1.8367892e-05	-2.0031305e-07	0
    CmYaw:	3.9115321e-05	4.1258046e-05	-2.1427245e-06	0
    Cs:	3.1728164e-07	7.1415313e-06	-6.8242497e-06	0
    Cs(f):	3.9273962e-05	4.4828811e-05	-5.5548493e-06	0
    Cs(r):	-3.895668e-05	-3.768728e-05	-1.2694003e-06	0

forces force_computation write:
    Sum of forces
        Total    : (95.667926 0.091748009 -4.7202021e-05)
        Pressure : (89.472766 0.091205713 -0.0010624463)
        Viscous  : (6.19516 0.00054229641 0.0010152443)
    Sum of moments
        Total    : (0.0040034708 0.008619588 -0.0070179651)
        Pressure : (0.0040476125 0.0090917662 -0.0064218952)
        Viscous  : (-4.4141678e-05 -0.00047217821 -0.00059606986)
Time = 15

smoothSolver:  Solving for Ux, Initial residual = 0.0058772401, Final residual = 0.00018276751, No Iterations 2
smoothSolver:  Solving for Uy, Initial residual = 0.053415321, Final residual = 0.001822207, No Iterations 2
smoothSolver:  Solving for Uz, Initial residual = 0.053924083, Final residual = 0.0018341273, No Iterations 2
GAMG:  Solving for p, Initial residual = 0.022497182, Final residual = 0.00014399259, No Iterations 4
GAMG:  Solving for p, Initial residual = 0.0024324069, Final residual = 1.6873562e-05, No Iterations 3
GAMG:  Solving for p, Initial residual = 0.00030759534, Final residual = 2.6151162e-06, No Iterations 3
GAMG:  Solving for p, Initial residual = 5.9607378e-05, Final residual = 4.6871541e-07, No Iterations 3
GAMG:  Solving for p, Initial residual = 1.4063568e-05, Final residual = 1.088647e-07, No Iterations 3
GAMG:  Solving for p, Initial residual = 3.7690578e-06, Final residual = 6.0916311e-08, No Iterations 2
time step continuity errors : sum local = 2.6015797e-07, global = 5.1585227e-08, cumulative = 9.1105739e-07
smoothSolver:  Solving for omega, Initial residual = 0.00013333769, Final residual = 9.9155571e-06, No Iterations 2
smoothSolver:  Solving for k, Initial residual = 0.0010070126, Final residual = 6.5732569e-05, No Iterations 2
ExecutionTime = 8.02 s  ClockTime = 8 s

forceCoeffs forceCoeffs_cl write:
    Coefficient	Total	Pressure	Viscous	Internal
    Cd:	0.62888582	0.60597969	0.022906134	0
    Cd(f):	0.31444524	0.30299226	0.011452983	0
    Cd(r):	0.31444058	0.30298743	0.011453151	0
    Cl:	0.00022191398	0.00021875548	3.1584936e-06	0
    Cl(f):	0.00012311715	0.00011937156	3.7455908e-06	0
    Cl(r):	9.8796829e-05	9.9383926e-05	-5.8709717e-07	0
    CmPitch:	1.216016e-05	9.9938158e-06	2.166344e-06	0
    CmRoll:	2.3290811e-06	2.4134402e-06	-8.4359037e-08	0
    CmYaw:	1.7638303e-05	1.9120774e-05	-1.482471e-06	0
    Cs:	0.00010759603	0.00010924947	-1.6534415e-06	0
    Cs(f):	7.1436316e-05	7.3745508e-05	-2.3091917e-06	0
    Cs(r):	3.615971e-05	3.550396e-05	6.5575024e-07	0

forceCoeffs forceCoeffs_cd write:
    Coefficient	Total	Pressure	Viscous	Internal
    Cd:	1.1450257	1.10332	0.04170568	0
    Cd(f):	0.57251707	0.55166438	0.020852686	0
    Cd(r):	0.57250859	0.55165559	0.020852994	0
    Cl:	0.00040404345	0.00039829272	5.7507358e-06	0
    Cl(f):	0.00022416198	0.00021734231	6.819676e-06	0
    Cl(r):	0.00017988147	0.00018095041	-1.0689402e-06	0
    CmPitch:	2.2140259e-05	1.8195951e-05	3.9443081e-06	0
    CmRoll:	4.2406071e-06	4.3942013e-06	-1.5359427e-07	0
    CmYaw:	3.2114429e-05	3.4813596e-05	-2.6991661e-06	0
    Cs:	0.00019590235	0.00019891281	-3.0104557e-06	0
    Cs(f):	0.0001300656	0.00013427	-4.204394e-06	0
    Cs(r):	6.5836746e-05	6.4642808e-05	1.1939383e-06	0

forces force_computation write:
    Sum of forces
        Total    : (170.34558 0.060109583 -0.029144411)
        Pressure : (164.14102 0.059254045 -0.029592277)
        Viscous  : (6.204558 0.00085553751 0.00044786579)
    Sum of moments
        Total    : (0.0009344749 0.0070768472 -0.0048789043)
        Pressure : (0.00096832147 0.0076716448 -0.0040097229)
        Viscous  : (-3.3846568e-05 -0.00059479762 -0.00086918142)
Time = 16

smoothSolver:  Solving for Ux, Initial residual = 0.0058140035, Final residual = 0.00019482467, No Iterations 2
smoothSolver:  Solving for Uy, Initial residual = 0.049065741, Final residual = 0.0016615906, No Iterations 2
smoothSolver:  Solving for Uz, Initial residual = 0.049571101, Final residual = 0.0016600066, No Iterations 2
GAMG:  Solving for p, Initial residual = 0.020996095, Final residual = 0.00014412586, No Iterations 4
GAMG:  Solving for p, Initial residual = 0.0022099126, Final residual = 1.4190594e-05, No Iterations 3
GAMG:  Solving for p, Initial residual = 0.00029401052, Final residual = 2.2977966e-06, No Iterations 3
GAMG:  Solving for p, Initial residual = 6.0662504e-05, Final residual = 4.4176949e-07, No Iterations 3
GAMG:  Solving for p, Initial residual = 1.5001713e-05, Final residual = 1.1373524e-07, No Iterations 3
GAMG:  Solving for p, Initial residual = 4.1488195e-06, Final residual = 6.3067555e-08, No Iterations 2
time step continuity errors : sum local = 3.407254e-07, global = -1.0564133e-07, cumulative = 8.0541607e-07
smoothSolver:  Solving for omega, Initial residual = 0.00012916945, Final residual = 9.568636e-06, No Iterations 2
smoothSolver:  Solving for k, Initial residual = 0.00094747648, Final residual = 6.322036e-05, No Iterations 2
ExecutionTime = 8.52 s  ClockTime = 9 s

forceCoeffs forceCoeffs_cl write:
    Coefficient	Total	Pressure	Viscous	Internal
    Cd:	0.50549759	0.4830872	0.022410393	0
    Cd(f):	0.25274213	0.24153692	0.011205214	0
    Cd(r):	0.25275546	0.24155028	0.011205179	0
    Cl:	9.3447343e-05	8.8522471e-05	4.9248723e-06	0
    Cl(f):	6.5629722e-05	6.0450083e-05	5.1796394e-06	0
    Cl(r):	2.7817621e-05	2.8072388e-05	-2.5476712e-07	0
    CmPitch:	1.8906051e-05	1.6188847e-05	2.7172033e-06	0
    CmRoll:	-6.6629584e-06	-6.6805243e-06	1.7565947e-08	0
    CmYaw:	8.7806213e-07	2.4863908e-06	-1.6083287e-06	0
    Cs:	0.00012449774	0.0001233972	1.1005394e-06	0
    Cs(f):	6.3126933e-05	6.4184992e-05	-1.058059e-06	0
    Cs(r):	6.1370809e-05	5.921221e-05	2.1585984e-06	0

forceCoeffs forceCoeffs_cd write:
    Coefficient	Total	Pressure	Viscous	Internal
    Cd:	0.92037011	0.87956703	0.040803075	0
    Cd(f):	0.46017292	0.43977135	0.020401569	0
    Cd(r):	0.46019718	0.43979568	0.020401505	0
    Cl:	0.00017014155	0.00016117473	8.9668186e-06	0
    Cl(f):	0.00011949342	0.00011006274	9.4306785e-06	0
    Cl(r):	5.0648128e-05	5.1111988e-05	-4.6385986e-07	0
    CmPitch:	3.4422644e-05	2.9475375e-05	4.9472692e-06	0
    CmRoll:	-1.2131389e-05	-1.2163371e-05	3.198269e-08	0
    CmYaw:	1.5987062e-06	4.5270241e-06	-2.9283179e-06	0
    Cs:	0.00022667566	0.00022467188	2.0037753e-06	0
    Cs(f):	0.00011493654	0.00011686297	-1.9264303e-06	0
    Cs(r):	0.00011173912	0.00010780892	3.9302056e-06	0

forces force_computation write:
    Sum of forces
        Total    : (136.92355 0.025311974 -0.03372256)
        Pressure : (130.85327 0.02397798 -0.033424458)
        Viscous  : (6.0702774 0.0013339945 -0.00029810184)
    Sum of moments
        Total    : (-0.0026733149 0.00035229645 -0.0075854934)
        Pressure : (-0.0026803627 0.00099759076 -0.006495296)
        Viscous  : (7.0478166e-06 -0.00064529431 -0.0010901974)
Time = 17

smoothSolver:  Solving for Ux, Initial residual = 0.0046358739, Final residual = 0.00015495788, No Iterations 2
smoothSolver:  Solving for Uy, Initial residual = 0.029262435, Final residual = 0.00094249298, No Iterations 2
smoothSolver:  Solving for Uz, Initial residual = 0.029389346, Final residual = 0.00093829926, No Iterations 2
GAMG:  Solving for p, Initial residual = 0.01673832, Final residual = 0.00014720974, No Iterations 4
GAMG:  Solving for p, Initial residual = 0.0024860384, Final residual = 1.5987314e-05, No Iterations 3
GAMG:  Solving for p, Initial residual = 0.00037530151, Final residual = 2.9253973e-06, No Iterations 3
GAMG:  Solving for p, Initial residual = 9.017292e-05, Final residual = 5.6223066e-07, No Iterations 3
GAMG:  Solving for p, Initial residual = 2.5145216e-05, Final residual = 1.5301954e-07, No Iterations 3
GAMG:  Solving for p, Initial residual = 7.7312995e-06, Final residual = 9.2277255e-08, No Iterations 2
time step continuity errors : sum local = 4.6874432e-07, global = -1.3568425e-07, cumulative = 6.6973182e-07
smoothSolver:  Solving for omega, Initial residual = 0.00012698107, Final residual = 9.3977811e-06, No Iterations 2
smoothSolver:  Solving for k, Initial residual = 0.00090494577, Final residual = 6.0990561e-05, No Iterations 2
ExecutionTime = 9.02 s  ClockTime = 9 s

forceCoeffs forceCoeffs_cl write:
    Coefficient	Total	Pressure	Viscous	Internal
    Cd:	0.21196543	0.19022576	0.02173967	0
    Cd(f):	0.10597214	0.095102223	0.010869919	0
    Cd(r):	0.10599328	0.095123534	0.01086975	0
    Cl:	0.00010614163	0.00010032299	5.8186355e-06	0
    Cl(f):	8.4978164e-05	7.893171e-05	6.0464542e-06	0
    Cl(r):	2.1163465e-05	2.1391284e-05	-2.2781871e-07	0
    CmPitch:	3.1907349e-05	2.8770213e-05	3.1371364e-06	0
    CmRoll:	-1.0571161e-05	-1.0655656e-05	8.4494968e-08	0
    CmYaw:	-1.2660776e-05	-1.1286134e-05	-1.3746412e-06	0
    Cs:	4.9374348e-05	4.7052143e-05	2.3222051e-06	0
    Cs(f):	1.2026398e-05	1.2239937e-05	-2.1353866e-07	0
    Cs(r):	3.734795e-05	3.4812206e-05	2.5357437e-06	0

forceCoeffs forceCoeffs_cd write:
    Coefficient	Total	Pressure	Viscous	Internal
    Cd:	0.38592991	0.34634804	0.039581874	0
    Cd(f):	0.19294571	0.17315462	0.019791091	0
    Cd(r):	0.1929842	0.17319342	0.019790783	0
    Cl:	0.0001932543	0.00018266019	1.0594112e-05	0
    Cl(f):	0.00015472153	0.00014371263	1.1008906e-05	0
    Cl(r):	3.8532767e-05	3.8947561e-05	-4.1479433e-07	0
    CmPitch:	5.8094383e-05	5.2382532e-05	5.7118504e-06	0
    CmRoll:	-1.9247136e-05	-1.9400977e-05	1.5384177e-07	0
    CmYaw:	-2.3051741e-05	-2.0548902e-05	-2.5028382e-06	0
    Cs:	8.9896915e-05	8.5668827e-05	4.2280876e-06	0
    Cs(f):	2.1896717e-05	2.2285511e-05	-3.8879434e-07	0
    Cs(r):	6.8000198e-05	6.3383316e-05	4.616882e-06	0

forces force_computation write:
    Sum of forces
        Total    : (57.41483 0.028750461 -0.013373973)
        Pressure : (51.526231 0.027174374 -0.01274496)
        Viscous  : (5.8885992 0.0015760871 -0.000629013)
    Sum of moments
        Total    : (-0.0042413657 -0.0050797616 -0.01280188)
        Pressure : (-0.0042752668 -0.0045282275 -0.011543197)
        Viscous  : (3.3901106e-05 -0.00055153411 -0.0012586832)
Time = 18

smoothSolver:  Solving for Ux, Initial residual = 0.0037096609, Final residual = 0.00011310484, No Iterations 2
smoothSolver:  Solving for Uy, Initial residual = 0.025006385, Final residual = 0.00079966997, No Iterations 2
smoothSolver:  Solving for Uz, Initial residual = 0.025039837, Final residual = 0.00076547169, No Iterations 2
GAMG:  Solving for p, Initial residual = 0.01129693, Final residual = 8.2877757e-05, No Iterations 4
GAMG:  Solving for p, Initial residual = 0.0021873876, Final residual = 1.3670936e-05, No Iterations 3
GAMG:  Solving for p, Initial residual = 0.00034754095, Final residual = 2.5925834e-06, No Iterations 3
GAMG:  Solving for p, Initial residual = 8.440912e-05, Final residual = 5.111712e-07, No Iterations 3
GAMG:  Solving for p, Initial residual = 2.3772441e-05, Final residual = 1.4504037e-07, No Iterations 3
GAMG:  Solving for p, Initial residual = 7.3838908e-06, Final residual = 9.1468386e-08, No Iterations 2
time step continuity errors : sum local = 3.4842058e-07, global = -9.2844129e-08, cumulative = 5.7688769e-07
smoothSolver:  Solving for omega, Initial residual = 0.00012326297, Final residual = 9.1828952e-06, No Iterations 2
smoothSolver:  Solving for k, Initial residual = 0.00085609083, Final residual = 5.7917414e-05, No Iterations 2
ExecutionTime = 9.52 s  ClockTime = 10 s

forceCoeffs forceCoeffs_cl write:
    Coefficient	Total	Pressure	Viscous	Internal
    Cd:	0.0063385028	-0.01484913	0.021187632	0
    Cd(f):	0.0031612919	-0.0074326423	0.010593934	0
    Cd(r):	0.0031772109	-0.0074164874	0.010593698	0
    Cl:	0.00022470236	0.00021964933	5.0530234e-06	0
    Cl(f):	0.00014503152	0.00013917523	5.8562939e-06	0
    Cl(r):	7.9670836e-05	8.0474107e-05	-8.0327051e-07	0
    CmPitch:	3.2680343e-05	2.9350561e-05	3.3297822e-06	0
    CmRoll:	-7.9595134e-06	-8.0774843e-06	1.1797089e-07	0
    CmYaw:	-1.6309398e-05	-1.5179895e-05	-1.1295032e-06	0
    Cs:	-3.174592e-05	-3.4442838e-05	2.6969178e-06	0
    Cs(f):	-3.2182358e-05	-3.2401314e-05	2.1895571e-07	0
    Cs(r):	4.3643759e-07	-2.0415245e-06	2.4779621e-06	0

forceCoeffs forceCoeffs_cd write:
    Coefficient	Total	Pressure	Viscous	Internal
    Cd:	0.011540645	-0.027036123	0.038576768	0
    Cd(f):	0.0057558306	-0.013532768	0.019288599	0
    Cd(r):	0.0057848148	-0.013503355	0.019288169	0
    Cl:	0.00040912031	0.00039992017	9.2001461e-06	0
    Cl(f):	0.00026406194	0.00025339927	1.0662678e-05	0
    Cl(r):	0.00014505837	0.0001465209	-1.4625315e-06	0
    CmPitch:	5.9501788e-05	5.3439183e-05	6.0626046e-06	0
    CmRoll:	-1.4492054e-05	-1.4706846e-05	2.1479208e-07	0
    CmYaw:	-2.9694864e-05	-2.7638354e-05	-2.0565103e-06	0
    Cs:	-5.7800466e-05	-6.2710801e-05	4.9103351e-06	0
    Cs(f):	-5.8595097e-05	-5.8993754e-05	3.9865727e-07	0
    Cs(r):	7.9463111e-07	-3.7170467e-06	4.5116778e-06	0

forces force_computation write:
    Sum of forces
        Total    : (1.7169029 0.060864868 0.0085989808)
        Pressure : (-4.0221666 0.059496162 0.0093294918)
        Viscous  : (5.7390695 0.0013687066 -0.00073051102)
    Sum of moments
        Total    : (-0.0031935193 -0.0065436633 -0.013112021)
        Pressure : (-0.0032408516 -0.0060904836 -0.011776044)
        Viscous  : (4.7332329e-05 -0.00045317974 -0.0013359766)
Time = 19

smoothSolver:  Solving for Ux, Initial residual = 0.0033112056, Final residual = 9.6300324e-05, No Iterations 2
smoothSolver:  Solving for Uy, Initial residual = 0.031280675, Final residual = 0.001029775, No Iterations 2
smoothSolver:  Solving for Uz, Initial residual = 0.030989296, Final residual = 0.00098940602, No Iterations 2
GAMG:  Solving for p, Initial residual = 0.010931201, Final residual = 5.6796144e-05, No Iterations 4
GAMG:  Solving for p, Initial residual = 0.0025230203, Final residual = 1.2696943e-05, No Iterations 3
GAMG:  Solving for p, Initial residual = 0.00032628078, Final residual = 2.0840382e-06, No Iterations 3
GAMG:  Solving for p, Initial residual = 5.936902e-05, Final residual = 4.1140094e-07, No Iterations 3
GAMG:  Solving for p, Initial residual = 1.3624103e-05, Final residual = 8.8256386e-08, No Iterations 3
GAMG:  Solving for p, Initial residual = 3.4863745e-06, Final residual = 4.9168724e-08, No Iterations 2
time step continuity errors : sum local = 1.2613392e-07, global = 2.6167135e-08, cumulative = 6.0305482e-07
smoothSolver:  Solving for omega, Initial residual = 0.00012083834, Final residual = 9.0006614e-06, No Iterations 2
smoothSolver:  Solving for k, Initial residual = 0.00080893234, Final residual = 5.4600947e-05, No Iterations 2
ExecutionTime = 10.02 s  ClockTime = 10 s

forceCoeffs forceCoeffs_cl write:
    Coefficient	Total	Pressure	Viscous	Internal
    Cd:	-0.0062503986	-0.027112212	0.020861813	0
    Cd(f):	-0.0031270822	-0.013558084	0.010431002	0
    Cd(r):	-0.0031233164	-0.013554128	0.010430811	0
    Cl:	0.00035898872	0.00035480215	4.1865646e-06	0
    Cl(f):	0.00019992744	0.00019477519	5.1522515e-06	0
    Cl(r):	0.00015906127	0.00016002696	-9.6568691e-07	0
    CmPitch:	2.0433086e-05	1.7374117e-05	3.0589692e-06	0
    CmRoll:	-1.8828702e-06	-1.978401e-06	9.5530826e-08	0
    CmYaw:	-1.6140304e-05	-1.5326914e-05	-8.1338997e-07	0
    Cs:	-6.944511e-05	-7.1402326e-05	1.9572165e-06	0
    Cs(f):	-5.0862859e-05	-5.1028077e-05	1.652183e-07	0
    Cs(r):	-1.8582251e-05	-2.0374249e-05	1.7919982e-06	0

forceCoeffs forceCoeffs_cd write:
    Coefficient	Total	Pressure	Viscous	Internal
    Cd:	-0.011380232	-0.049363775	0.037983542	0
    Cd(f):	-0.0056935443	-0.02468549	0.018991945	0
    Cd(r):	-0.005686688	-0.024678285	0.018991597	0
    Cl:	0.00065361831	0.00064599574	7.6225663e-06	0
    Cl(f):	0.00036401211	0.00035463129	9.3808128e-06	0
    Cl(r):	0.00028960621	0.00029136445	-1.7582465e-06	0
    CmPitch:	3.720295e-05	3.163342e-05	5.5695296e-06	0
    CmRoll:	-3.4281814e-06	-3.6021163e-06	1.7393499e-07	0
    CmYaw:	-2.9386991e-05	-2.7906035e-05	-1.4809562e-06	0
    Cs:	-0.00012644017	-0.00013000372	3.5635454e-06	0
    Cs(f):	-9.2607078e-05	-9.2907894e-05	3.0081644e-07	0
    Cs(r):	-3.3833095e-05	-3.7095824e-05	3.2627289e-06	0

forces force_computation write:
    Sum of forces
        Total    : (-1.6930383 0.097238859 0.018810517)
        Pressure : (-7.3438535 0.096104849 0.019340666)
        Viscous  : (5.6508152 0.0011340099 -0.00053014899)
    Sum of moments
        Total    : (-0.00075544595 -0.0064758195 -0.0081981713)
        Pressure : (-0.00079377487 -0.0061494708 -0.0069708504)
        Viscous  : (3.8328917e-05 -0.00032634866 -0.0012273209)
Time = 20

smoothSolver:  Solving for Ux, Initial residual = 0.0029458624, Final residual = 8.5805959e-05, No Iterations 2
smoothSolver:  Solving for Uy, Initial residual = 0.026841063, Final residual = 0.00086540301, No Iterations 2
smoothSolver:  Solving for Uz, Initial residual = 0.026380334, Final residual = 0.00084699168, No Iterations 2
GAMG:  Solving for p, Initial residual = 0.012685772, Final residual = 9.0325061e-05, No Iterations 4
GAMG:  Solving for p, Initial residual = 0.0035294375, Final residual = 2.2511968e-05, No Iterations 3
GAMG:  Solving for p, Initial residual = 0.00045585788, Final residual = 3.5996695e-06, No Iterations 3
GAMG:  Solving for p, Initial residual = 9.1948428e-05, Final residual = 6.9149747e-07, No Iterations 3
GAMG:  Solving for p, Initial residual = 2.2092012e-05, Final residual = 1.6935402e-07, No Iterations 3
GAMG:  Solving for p, Initial residual = 5.9675949e-06, Final residual = 9.418347e-08, No Iterations 2
time step continuity errors : sum local = 2.0266996e-07, global = 6.3335518e-08, cumulative = 6.6639034e-07
smoothSolver:  Solving for omega, Initial residual = 0.00011897115, Final residual = 8.8578388e-06, No Iterations 2
smoothSolver:  Solving for k, Initial residual = 0.00077178005, Final residual = 5.2159362e-05, No Iterations 2
ExecutionTime = 10.52 s  ClockTime = 11 s

forceCoeffs forceCoeffs_cl write:
    Coefficient	Total	Pressure	Viscous	Internal
    Cd:	0.11703301	0.096337001	0.020696011	0
    Cd(f):	0.058519791	0.048171737	0.010348054	0
    Cd(r):	0.058513221	0.048165264	0.010347957	0
    Cl:	0.00041888841	0.00041549189	3.3965108e-06	0
    Cl(f):	0.0002168973	0.00021230376	4.5935432e-06	0
    Cl(r):	0.0002019911	0.00020318814	-1.1970324e-06	0
    CmPitch:	7.4530996e-06	4.5578118e-06	2.8952878e-06	0
    CmRoll:	3.2848437e-06	3.2365218e-06	4.8321918e-08	0
    CmYaw:	-1.1485179e-05	-1.0962917e-05	-5.2226173e-07	0
    Cs:	-2.374771e-05	-2.5166941e-05	1.4192311e-06	0
    Cs(f):	-2.3359034e-05	-2.3546387e-05	1.8735381e-07	0
    Cs(r):	-3.8867588e-07	-1.6205531e-06	1.2318773e-06	0

forceCoeffs forceCoeffs_cd write:
    Coefficient	Total	Pressure	Viscous	Internal
    Cd:	0.21308447	0.17540281	0.037681664	0
    Cd(f):	0.10654822	0.087707295	0.01884092	0
    Cd(r):	0.10653625	0.08769551	0.018840744	0
    Cl:	0.00076267894	0.00075649484	6.1840986e-06	0
    Cl(f):	0.00039490948	0.00038654592	8.3635607e-06	0
    Cl(r):	0.00036776945	0.00036994892	-2.1794621e-06	0
    CmPitch:	1.3570015e-05	8.2985038e-06	5.2715114e-06	0
    CmRoll:	5.9807841e-06	5.8928034e-06	8.7980734e-08	0
    CmYaw:	-2.0911307e-05	-1.9960414e-05	-9.5089292e-07	0
    Cs:	-4.3237955e-05	-4.5821979e-05	2.5840239e-06	0
    Cs(f):	-4.2530284e-05	-4.2871403e-05	3.4111903e-07	0
    Cs(r):	-7.0767035e-07	-2.9505752e-06	2.2429049e-06	0

forces force_computation write:
    Sum of forces
        Total    : (31.700597 0.11346382 0.0064325146)
        Pressure : (26.094692 0.11254381 0.0068169401)
        Viscous  : (5.6059047 0.00092000894 -0.00038442548)
    Sum of moments
        Total    : (0.0013179464 -0.0046080882 -0.0029903357)
        Pressure : (0.0012985586 -0.0043985462 -0.0018286871)
        Viscous  : (1.938774e-05 -0.00020954207 -0.0011616486)
Time = 21

smoothSolver:  Solving for Ux, Initial residual = 0.0025621376, Final residual = 7.3042085e-05, No Iterations 2
smoothSolver:  Solving for Uy, Initial residual = 0.021527781, Final residual = 0.00069136344, No Iterations 2
smoothSolver:  Solving for Uz, Initial residual = 0.021289812, Final residual = 0.00069044477, No Iterations 2
GAMG:  Solving for p, Initial residual = 0.011820179, Final residual = 8.1383461e-05, No Iterations 4
GAMG:  Solving for p, Initial residual = 0.0023523309, Final residual = 1.5108532e-05, No Iterations 3
GAMG:  Solving for p, Initial residual = 0.00029956269, Final residual = 2.4715035e-06, No Iterations 3
GAMG:  Solving for p, Initial residual = 5.9766051e-05, Final residual = 4.9851327e-07, No Iterations 3
GAMG:  Solving for p, Initial residual = 1.4352935e-05, Final residual = 1.2517346e-07, No Iterations 3
GAMG:  Solving for p, Initial residual = 3.8323608e-06, Final residual = 7.0424403e-08, No Iterations 2
time step continuity errors : sum local = 1.8121663e-07, global = 4.9014072e-08, cumulative = 7.1540441e-07
smoothSolver:  Solving for omega, Initial residual = 0.00011811844, Final residual = 8.7164184e-06, No Iterations 2
smoothSolver:  Solving for k, Initial residual = 0.00075421679, Final residual = 5.1464917e-05, No Iterations 2
ExecutionTime = 11.02 s  ClockTime = 11 s

forceCoeffs forceCoeffs_cl write:
    Coefficient	Total	Pressure	Viscous	Internal
    Cd:	0.25014357	0.22958763	0.020555941	0
    Cd(f):	0.12507647	0.1147985	0.010277975	0
    Cd(r):	0.12506709	0.11478913	0.010277967	0
    Cl:	0.00039909382	0.00039632707	2.7667496e-06	0
    Cl(f):	0.00020244097	0.00019831452	4.1264451e-06	0
    Cl(r):	0.00019665285	0.00019801255	-1.3596955e-06	0
    CmPitch:	2.894058e-06	1.5098768e-07	2.7430703e-06	0
    CmRoll:	4.6897564e-06	4.6857985e-06	3.9579606e-09	0
    CmYaw:	-4.5569481e-06	-4.3541826e-06	-2.0276551e-07	0
    Cs:	4.7917787e-05	4.6798833e-05	1.1189539e-06	0
    Cs(f):	1.9401945e-05	1.9045234e-05	3.5671143e-07	0
    Cs(r):	2.8515842e-05	2.7753599e-05	7.6224244e-07	0

forceCoeffs forceCoeffs_cd write:
    Coefficient	Total	Pressure	Viscous	Internal
    Cd:	0.45544166	0.41801503	0.037426635	0
    Cd(f):	0.22772937	0.20901604	0.018713325	0
    Cd(r):	0.22771229	0.20899898	0.01871331	0
    Cl:	0.00072663852	0.00072160105	5.0374792e-06	0
    Cl(f):	0.00036858853	0.00036107543	7.5131055e-06	0
    Cl(r):	0.00035804999	0.00036052562	-2.4756262e-06	0
    CmPitch:	5.2692723e-06	2.7490645e-07	4.9943658e-06	0
    CmRoll:	8.5387383e-06	8.5315319e-06	7.2063422e-09	0
    CmYaw:	-8.2969314e-06	-7.927752e-06	-3.6917942e-07	0
    Cs:	8.7244923e-05	8.5207621e-05	2.0373029e-06	0
    Cs(f):	3.532553e-05	3.4676058e-05	6.4947201e-07	0
    Cs(r):	5.1919393e-05	5.0531562e-05	1.3878309e-06	0

forces force_computation write:
    Sum of forces
        Total    : (67.7561 0.10810208 -0.012979436)
        Pressure : (62.188136 0.10735266 -0.012676346)
        Viscous  : (5.5679641 0.00074942627 -0.00030308974)
    Sum of moments
        Total    : (0.001881626 -0.0018283406 -0.0011611551)
        Pressure : (0.001880038 -0.001746987 -6.0579341e-05)
        Viscous  : (1.5880146e-06 -8.135366e-05 -0.0011005758)
Time = 22

smoothSolver:  Solving for Ux, Initial residual = 0.0024388685, Final residual = 6.9505726e-05, No Iterations 2
smoothSolver:  Solving for Uy, Initial residual = 0.022305748, Final residual = 0.00072501969, No Iterations 2
smoothSolver:  Solving for Uz, Initial residual = 0.022461243, Final residual = 0.0007218721, No Iterations 2
GAMG:  Solving for p, Initial residual = 0.0094664697, Final residual = 5.2692022e-05, No Iterations 4
GAMG:  Solving for p, Initial residual = 0.0013837623, Final residual = 8.4002595e-06, No Iterations 3
GAMG:  Solving for p, Initial residual = 0.00016741847, Final residual = 1.4266337e-06, No Iterations 3
GAMG:  Solving for p, Initial residual = 3.1812605e-05, Final residual = 2.6282492e-07, No Iterations 3
GAMG:  Solving for p, Initial residual = 7.1540672e-06, Final residual = 6.3822748e-08, No Iterations 3
GAMG:  Solving for p, Initial residual = 1.8587849e-06, Final residual = 3.5416559e-08, No Iterations 2
time step continuity errors : sum local = 1.1448044e-07, global = 2.9021957e-08, cumulative = 7.4442637e-07
smoothSolver:  Solving for omega, Initial residual = 0.00011758049, Final residual = 8.5594162e-06, No Iterations 2
smoothSolver:  Solving for k, Initial residual = 0.00075386508, Final residual = 5.2141599e-05, No Iterations 2
ExecutionTime = 11.51 s  ClockTime = 12 s

forceCoeffs forceCoeffs_cl write:
    Coefficient	Total	Pressure	Viscous	Internal
    Cd:	0.30609058	0.28572404	0.020366545	0
    Cd(f):	0.15304793	0.14286469	0.010183243	0
    Cd(r):	0.15304265	0.14285935	0.010183302	0
    Cl:	0.00037030897	0.00036775573	2.5532327e-06	0
    Cl(f):	0.00019300208	0.00018885992	4.142157e-06	0
    Cl(r):	0.00017730689	0.00017889581	-1.5889243e-06	0
    CmPitch:	7.8475956e-06	4.982055e-06	2.8655407e-06	0
    CmRoll:	2.6418568e-06	2.6713191e-06	-2.946228e-08	0
    CmYaw:	-2.057346e-06	-2.0334616e-06	-2.3884396e-08	0
    Cs:	8.3514724e-05	8.2291621e-05	1.2231026e-06	0
    Cs(f):	3.9700016e-05	3.9112349e-05	5.8766689e-07	0
    Cs(r):	4.3814708e-05	4.3179272e-05	6.3543568e-07	0

forceCoeffs forceCoeffs_cd write:
    Coefficient	Total	Pressure	Viscous	Internal
    Cd:	0.55730557	0.52022377	0.037081797	0
    Cd(f):	0.27865759	0.26011675	0.018540845	0
    Cd(r):	0.27864797	0.26010702	0.018540952	0
    Cl:	0.00067422933	0.00066958061	4.6487246e-06	0
    Cl(f):	0.00035140295	0.00034386124	7.5417125e-06	0
    Cl(r):	0.00032282638	0.00032571937	-2.8929879e-06	0
    CmPitch:	1.4288283e-05	9.0709324e-06	5.2173502e-06	0
    CmRoll:	4.8100844e-06	4.8637269e-06	-5.3642593e-08	0
    CmYaw:	-3.7458531e-06	-3.7023663e-06	-4.3486822e-08	0
    Cs:	0.00015205702	0.00014983009	2.2269286e-06	0
    Cs(f):	7.2282655e-05	7.1212677e-05	1.0699775e-06	0
    Cs(r):	7.9774361e-05	7.861741e-05	1.1569511e-06	0

forces force_computation write:
    Sum of forces
        Total    : (82.910403 0.10030516 -0.022621537)
        Pressure : (77.39374 0.099613571 -0.022290236)
        Viscous  : (5.5166625 0.00069159121 -0.00033130038)
    Sum of moments
        Total    : (0.0010599669 -0.0008254492 -0.0031486156)
        Pressure : (0.0010717878 -0.00081586629 -0.0019989022)
        Viscous  : (-1.1820868e-05 -9.5829071e-06 -0.0011497134)
Time = 23

smoothSolver:  Solving for Ux, Initial residual = 0.0023448029, Final residual = 6.8777809e-05, No Iterations 2
smoothSolver:  Solving for Uy, Initial residual = 0.019520459, Final residual = 0.00063067267, No Iterations 2
smoothSolver:  Solving for Uz, Initial residual = 0.019814681, Final residual = 0.00062934955, No Iterations 2
GAMG:  Solving for p, Initial residual = 0.0098829432, Final residual = 6.2900322e-05, No Iterations 4
GAMG:  Solving for p, Initial residual = 0.0013667479, Final residual = 8.2175814e-06, No Iterations 3
GAMG:  Solving for p, Initial residual = 0.0001824936, Final residual = 1.4171598e-06, No Iterations 3
GAMG:  Solving for p, Initial residual = 3.8346991e-05, Final residual = 2.6492888e-07, No Iterations 3
GAMG:  Solving for p, Initial residual = 9.5469434e-06, Final residual = 6.8706424e-08, No Iterations 3
GAMG:  Solving for p, Initial residual = 2.6490393e-06, Final residual = 3.7319126e-08, No Iterations 2
time step continuity errors : sum local = 1.3055621e-07, global = -4.0119324e-08, cumulative = 7.0430705e-07
smoothSolver:  Solving for omega, Initial residual = 0.00011665679, Final residual = 8.4031931e-06, No Iterations 2
smoothSolver:  Solving for k, Initial residual = 0.00076440824, Final residual = 5.3458612e-05, No Iterations 2
ExecutionTime = 12.01 s  ClockTime = 12 s

forceCoeffs forceCoeffs_cl write:
    Coefficient	Total	Pressure	Viscous	Internal
    Cd:	0.2794503	0.25931314	0.020137162	0
    Cd(f):	0.13972451	0.12965598	0.010068533	0
    Cd(r):	0.13972579	0.12965716	0.010068629	0
    Cl:	0.00042464332	0.0004221547	2.4886155e-06	0
    Cl(f):	0.00022114542	0.00021668034	4.4650818e-06	0
    Cl(r):	0.0002034979	0.00020547437	-1.9764663e-06	0
    CmPitch:	8.8237596e-06	5.6029855e-06	3.2207741e-06	0
    CmRoll:	-6.4092459e-07	-5.9261065e-07	-4.8313939e-08	0
    CmYaw:	-3.871115e-06	-3.9616286e-06	9.0513572e-08	0
    Cs:	5.5514626e-05	5.390209e-05	1.6125352e-06	0
    Cs(f):	2.3886198e-05	2.2989417e-05	8.9678116e-07	0
    Cs(r):	3.1628428e-05	3.0912674e-05	7.1575401e-07	0

forceCoeffs forceCoeffs_cd write:
    Coefficient	Total	Pressure	Viscous	Internal
    Cd:	0.50880105	0.47213689	0.036664154	0
    Cd(f):	0.25439936	0.23606737	0.018331989	0
    Cd(r):	0.25440169	0.23606953	0.018332165	0
    Cl:	0.00077315703	0.00076862596	4.5310746e-06	0
    Cl(f):	0.00040264412	0.00039451445	8.1296684e-06	0
    Cl(r):	0.00037051291	0.0003741115	-3.5985939e-06	0
    CmPitch:	1.6065605e-05	1.0201474e-05	5.8641311e-06	0
    CmRoll:	-1.1669449e-06	-1.0789787e-06	-8.7966206e-08	0
    CmYaw:	-7.0482207e-06	-7.2130206e-06	1.6479997e-07	0
    Cs:	0.00010107665	9.8140671e-05	2.9359767e-06	0
    Cs(f):	4.3490103e-05	4.1857315e-05	1.6327883e-06	0
    Cs(r):	5.7586544e-05	5.6283356e-05	1.3031884e-06	0

forces force_computation write:
    Sum of forces
        Total    : (75.694381 0.11502265 -0.015037183)
        Pressure : (70.239851 0.11434856 -0.014600397)
        Viscous  : (5.4545297 0.0006740884 -0.00043678554)
    Sum of moments
        Total    : (-0.00025715203 -0.0015531704 -0.0035402725)
        Pressure : (-0.00023776749 -0.0015894863 -0.0022480322)
        Viscous  : (-1.9384539e-05 3.6315893e-05 -0.0012922403)
Time = 24

smoothSolver:  Solving for Ux, Initial residual = 0.0021506128, Final residual = 6.3563594e-05, No Iterations 2
smoothSolver:  Solving for Uy, Initial residual = 0.014680738, Final residual = 0.00045126602, No Iterations 2
smoothSolver:  Solving for Uz, Initial residual = 0.014620742, Final residual = 0.00044652592, No Iterations 2
GAMG:  Solving for p, Initial residual = 0.0088833407, Final residual = 5.9565187e-05, No Iterations 4
GAMG:  Solving for p, Initial residual = 0.0013589559, Final residual = 9.3034624e-06, No Iterations 3
GAMG:  Solving for p, Initial residual = 0.00019872979, Final residual = 1.6016908e-06, No Iterations 3
GAMG:  Solving for p, Initial residual = 4.3994134e-05, Final residual = 3.2642265e-07, No Iterations 3
GAMG:  Solving for p, Initial residual = 1.1427821e-05, Final residual = 8.7593091e-08, No Iterations 3
GAMG:  Solving for p, Initial residual = 3.2940841e-06, Final residual = 5.2282959e-08, No Iterations 2
time step continuity errors : sum local = 1.6765955e-07, global = -5.2690733e-08, cumulative = 6.5161631e-07
smoothSolver:  Solving for omega, Initial residual = 0.00011454179, Final residual = 8.1764433e-06, No Iterations 2
smoothSolver:  Solving for k, Initial residual = 0.00078062371, Final residual = 5.4851471e-05, No Iterations 2
ExecutionTime = 12.51 s  ClockTime = 13 s

forceCoeffs forceCoeffs_cl write:
    Coefficient	Total	Pressure	Viscous	Internal
    Cd:	0.22234958	0.20243491	0.019914673	0
    Cd(f):	0.11117165	0.10121437	0.0099572757	0
    Cd(r):	0.11117793	0.10122054	0.0099573975	0
    Cl:	0.00053220539	0.0005290672	3.138189e-06	0
    Cl(f):	0.00026734797	0.00026238722	4.960749e-06	0
    Cl(r):	0.00026485742	0.00026667998	-1.8225601e-06	0
    CmPitch:	1.2452708e-06	-2.1463837e-06	3.3916545e-06	0
    CmRoll:	-3.1432403e-06	-3.0823155e-06	-6.0924734e-08	0
    CmYaw:	-7.812654e-06	-7.9224122e-06	1.0975819e-07	0
    Cs:	-6.849184e-06	-8.9350967e-06	2.0859127e-06	0
    Cs(f):	-1.1237246e-05	-1.2389961e-05	1.1527146e-06	0
    Cs(r):	4.388062e-06	3.4548638e-06	9.3319818e-07	0

forceCoeffs forceCoeffs_cd write:
    Coefficient	Total	Pressure	Viscous	Internal
    Cd:	0.40483656	0.3685775	0.036259065	0
    Cd(f):	0.20241256	0.18428314	0.018129421	0
    Cd(r):	0.202424	0.18429436	0.018129643	0
    Cl:	0.00096899756	0.00096328379	5.7137667e-06	0
    Cl(f):	0.00048676607	0.00047773393	9.0321402e-06	0
    Cl(r):	0.00048223149	0.00048554986	-3.3183735e-06	0
    CmPitch:	2.2672907e-06	-3.9079661e-06	6.1752568e-06	0
    CmRoll:	-5.7229637e-06	-5.6120368e-06	-1.1092695e-07	0
[...]
    Cs(r):	-0.02548122	-0.025236433	-0.00024478624	0

forceCoeffs forceCoeffs_cd write:
    Coefficient	Total	Pressure	Viscous	Internal
    Cd:	0.38618411	0.34822533	0.037958784	0
    Cd(f):	0.19309842	0.17413315	0.018965263	0
    Cd(r):	0.19308569	0.17409217	0.018993521	0
    Cl:	0.15729926	0.15585842	0.0014408414	0
    Cl(f):	0.062838236	0.06223088	0.00060735593	0
    Cl(r):	0.094461023	0.093627537	0.00083348549	0
    CmPitch:	-0.015811393	-0.015698329	-0.00011306478	0
    CmRoll:	6.3608641e-06	2.0490263e-05	-1.4129399e-05	0
    CmYaw:	-0.012173844	-0.012155047	-1.8796407e-05	0
    Cs:	-0.11713607	-0.11620711	-0.00092896773	0
    Cs(f):	-0.070741881	-0.0702586	-0.00048328027	0
    Cs(r):	-0.046394193	-0.045948506	-0.00044568746	0

forces force_computation write:
    Sum of forces
        Total    : (57.452647 23.401426 17.426345)
        Pressure : (51.805515 23.187072 17.288142)
        Viscous  : (5.6471319 0.21435412 0.13820262)
    Sum of moments
        Total    : (0.0014017021 -2.6826705 3.4842535)
        Pressure : (0.0045153055 -2.6785284 3.4593382)
        Viscous  : (-0.0031136034 -0.0041420416 0.024915348)
Time = 256

smoothSolver:  Solving for Ux, Initial residual = 0.00015767166, Final residual = 5.1357522e-06, No Iterations 2
smoothSolver:  Solving for Uy, Initial residual = 0.0012026671, Final residual = 3.8523493e-05, No Iterations 2
smoothSolver:  Solving for Uz, Initial residual = 0.0015419883, Final residual = 4.6538031e-05, No Iterations 2
GAMG:  Solving for p, Initial residual = 0.00087193844, Final residual = 6.6032586e-06, No Iterations 3
GAMG:  Solving for p, Initial residual = 0.00011309183, Final residual = 7.0569701e-07, No Iterations 3
GAMG:  Solving for p, Initial residual = 1.5779752e-05, Final residual = 9.9790923e-08, No Iterations 3
GAMG:  Solving for p, Initial residual = 3.1785946e-06, Final residual = 4.3691286e-08, No Iterations 2
GAMG:  Solving for p, Initial residual = 6.8430661e-07, Final residual = 4.6573185e-08, No Iterations 1
GAMG:  Solving for p, Initial residual = 1.8765507e-07, Final residual = 2.2765477e-08, No Iterations 1
time step continuity errors : sum local = 5.2397331e-08, global = 1.0811669e-08, cumulative = 1.3068662e-06
smoothSolver:  Solving for omega, Initial residual = 8.0650006e-06, Final residual = 5.0270985e-07, No Iterations 2
smoothSolver:  Solving for k, Initial residual = 0.00041371502, Final residual = 2.428587e-05, No Iterations 2
ExecutionTime = 120.59 s  ClockTime = 121 s

forceCoeffs forceCoeffs_cl write:
    Coefficient	Total	Pressure	Viscous	Internal
    Cd:	0.21263653	0.19175283	0.020883695	0
    Cd(f):	0.10631515	0.095881342	0.010433807	0
    Cd(r):	0.10632138	0.09587149	0.010449888	0
    Cl:	0.085469772	0.084678412	0.00079135963	0
    Cl(f):	0.03417693	0.03384279	0.00033414055	0
    Cl(r):	0.051292841	0.050835622	0.00045721907	0
    CmPitch:	-0.0085579556	-0.0084964163	-6.153926e-05	0
    CmRoll:	-3.1144753e-06	4.9258198e-06	-8.040295e-06	0
    CmYaw:	-0.0066170273	-0.0066081266	-8.9006281e-06	0
    Cs:	-0.063935984	-0.063425593	-0.00051039142	0
    Cs(f):	-0.038585019	-0.038320923	-0.00026409634	0
    Cs(r):	-0.025350965	-0.02510467	-0.00024629508	0

forceCoeffs forceCoeffs_cd write:
    Coefficient	Total	Pressure	Viscous	Internal
    Cd:	0.3871518	0.34912842	0.038023383	0
    Cd(f):	0.19357023	0.17457318	0.018997053	0
    Cd(r):	0.19358157	0.17455524	0.019026331	0
    Cl:	0.15561661	0.15417577	0.0014408451	0
    Cl(f):	0.062226657	0.06161828	0.00060837674	0
    Cl(r):	0.093389956	0.092557488	0.00083246839	0
    CmPitch:	-0.01558165	-0.015469604	-0.00011204583	0
    CmRoll:	-5.6705907e-06	8.9685438e-06	-1.4639134e-05	0
    CmYaw:	-0.012047761	-0.012031555	-1.6205561e-05	0
    Cs:	-0.11640959	-0.11548031	-0.0009292804	0
    Cs(f):	-0.070252557	-0.069771711	-0.00048084576	0
    Cs(r):	-0.046157036	-0.045708601	-0.00044843464	0

forces force_computation write:
    Sum of forces
        Total    : (57.596611 23.151098 17.318266)
        Pressure : (51.939868 22.936744 17.180017)
        Viscous  : (5.6567424 0.21435467 0.13824913)
    Sum of moments
        Total    : (-0.0012495911 -2.6548864 3.4336265)
        Pressure : (0.0019763394 -2.6513153 3.4089357)
        Viscous  : (-0.0032259305 -0.0035711137 0.024690807)
Time = 257

smoothSolver:  Solving for Ux, Initial residual = 0.00015631505, Final residual = 5.1105494e-06, No Iterations 2
smoothSolver:  Solving for Uy, Initial residual = 0.0011836947, Final residual = 3.7918074e-05, No Iterations 2
smoothSolver:  Solving for Uz, Initial residual = 0.0015157313, Final residual = 4.5550501e-05, No Iterations 2
GAMG:  Solving for p, Initial residual = 0.00085809344, Final residual = 6.7172814e-06, No Iterations 3
GAMG:  Solving for p, Initial residual = 0.00011215624, Final residual = 7.2497297e-07, No Iterations 3
GAMG:  Solving for p, Initial residual = 1.5668677e-05, Final residual = 1.0240938e-07, No Iterations 3
GAMG:  Solving for p, Initial residual = 3.1702786e-06, Final residual = 4.3472346e-08, No Iterations 2
GAMG:  Solving for p, Initial residual = 6.824759e-07, Final residual = 4.6367406e-08, No Iterations 1
GAMG:  Solving for p, Initial residual = 1.8704154e-07, Final residual = 2.2332994e-08, No Iterations 1
time step continuity errors : sum local = 5.1628984e-08, global = 9.8631086e-09, cumulative = 1.3167293e-06
smoothSolver:  Solving for omega, Initial residual = 7.9846123e-06, Final residual = 4.9964312e-07, No Iterations 2
smoothSolver:  Solving for k, Initial residual = 0.00040479819, Final residual = 2.3821612e-05, No Iterations 2
ExecutionTime = 121.04 s  ClockTime = 121 s

forceCoeffs forceCoeffs_cl write:
    Coefficient	Total	Pressure	Viscous	Internal
    Cd:	0.21313482	0.1922139	0.02092092	0
    Cd(f):	0.10655759	0.096105431	0.010452158	0
    Cd(r):	0.10657723	0.096108472	0.010468762	0
    Cl:	0.084448627	0.083657869	0.00079075866	0
    Cl(f):	0.033802368	0.033467904	0.00033446432	0
    Cl(r):	0.050646259	0.050189965	0.00045629434	0
    CmPitch:	-0.0084219454	-0.0083610304	-6.0915013e-05	0
    CmRoll:	-9.8226885e-06	-1.5204717e-06	-8.3022167e-06	0
    CmYaw:	-0.0065408474	-0.0065333438	-7.5036074e-06	0
    Cs:	-0.06347794	-0.062967617	-0.00051032258	0
    Cs(f):	-0.038279817	-0.038017152	-0.0002626649	0
    Cs(r):	-0.025198123	-0.024950465	-0.00024765768	0

forceCoeffs forceCoeffs_cd write:
    Coefficient	Total	Pressure	Viscous	Internal
    Cd:	0.38805906	0.3499679	0.038091159	0
    Cd(f):	0.19401164	0.17498118	0.019030464	0
    Cd(r):	0.19404741	0.17498672	0.019060696	0
    Cl:	0.15375739	0.15231764	0.0014397509	0
    Cl(f):	0.061544683	0.060935717	0.00060896623	0
    Cl(r):	0.09221271	0.091381925	0.00083078472	0
    CmPitch:	-0.015334013	-0.015223104	-0.00011090925	0
    CmRoll:	-1.7884376e-05	-2.7683549e-06	-1.5116021e-05	0
    CmYaw:	-0.011909059	-0.011895397	-1.3661976e-05	0
    Cs:	-0.11557562	-0.11464647	-0.00092915507	0
    Cs(f):	-0.069696869	-0.06921863	-0.00047823951	0
    Cs(r):	-0.045878752	-0.045427837	-0.00045091556	0

forces force_computation write:
    Sum of forces
        Total    : (57.731583 22.874502 17.194196)
        Pressure : (52.064758 22.66031 17.055966)
        Viscous  : (5.6668254 0.21419189 0.13823049)
    Sum of moments
        Total    : (-0.0039410631 -2.6243215 3.3790564)
        Pressure : (-0.0006100443 -2.6213109 3.3546161)
        Viscous  : (-0.0033310188 -0.0030106005 0.024440347)
Time = 258

smoothSolver:  Solving for Ux, Initial residual = 0.00015504157, Final residual = 5.0827959e-06, No Iterations 2
smoothSolver:  Solving for Uy, Initial residual = 0.001167589, Final residual = 3.7462593e-05, No Iterations 2
smoothSolver:  Solving for Uz, Initial residual = 0.0014928687, Final residual = 4.4718419e-05, No Iterations 2
GAMG:  Solving for p, Initial residual = 0.00084306668, Final residual = 6.8895073e-06, No Iterations 3
GAMG:  Solving for p, Initial residual = 0.00011098789, Final residual = 7.4723346e-07, No Iterations 3
GAMG:  Solving for p, Initial residual = 1.5686013e-05, Final residual = 1.0570601e-07, No Iterations 3
GAMG:  Solving for p, Initial residual = 3.1793118e-06, Final residual = 4.4265159e-08, No Iterations 2
GAMG:  Solving for p, Initial residual = 6.8551804e-07, Final residual = 4.6677546e-08, No Iterations 1
GAMG:  Solving for p, Initial residual = 1.8890549e-07, Final residual = 2.2117497e-08, No Iterations 1
time step continuity errors : sum local = 5.1351931e-08, global = 8.5778582e-09, cumulative = 1.3253072e-06
smoothSolver:  Solving for omega, Initial residual = 7.9044701e-06, Final residual = 4.9638749e-07, No Iterations 2
smoothSolver:  Solving for k, Initial residual = 0.00039655341, Final residual = 2.3439277e-05, No Iterations 2
ExecutionTime = 121.48 s  ClockTime = 122 s

forceCoeffs forceCoeffs_cl write:
    Coefficient	Total	Pressure	Viscous	Internal
    Cd:	0.21359458	0.19263499	0.020959594	0
    Cd(f):	0.10678113	0.096309875	0.010471252	0
    Cd(r):	0.10681346	0.096325114	0.010488342	0
    Cl:	0.083335259	0.082545797	0.00078946194	0
    Cl(f):	0.033390812	0.033056294	0.00033451808	0
    Cl(r):	0.049944447	0.049489503	0.00045494386	0
    CmPitch:	-0.0082768172	-0.0082166043	-6.0212891e-05	0
    CmRoll:	-1.6164753e-05	-7.6194096e-06	-8.5453437e-06	0
    CmYaw:	-0.0064586681	-0.0064524865	-6.1815473e-06	0
    Cs:	-0.062965382	-0.062455343	-0.00051003832	0
    Cs(f):	-0.037941359	-0.037680158	-0.00026120071	0
    Cs(r):	-0.025024023	-0.024775185	-0.00024883761	0

forceCoeffs forceCoeffs_cd write:
    Coefficient	Total	Pressure	Viscous	Internal
    Cd:	0.38889615	0.35073458	0.038161574	0
    Cd(f):	0.19441865	0.17535342	0.019065228	0
    Cd(r):	0.19447751	0.17538116	0.019096346	0
    Cl:	0.15173026	0.15029287	0.00143739	0
    Cl(f):	0.060795355	0.060186291	0.00060906411	0
    Cl(r):	0.090934906	0.09010658	0.00082832586	0
    CmPitch:	-0.015069775	-0.014960144	-0.00010963088	0
    CmRoll:	-2.9431507e-05	-1.387282e-05	-1.5558687e-05	0
    CmYaw:	-0.011759433	-0.011748178	-1.1254873e-05	0
    Cs:	-0.1146424	-0.11371376	-0.0009286375	0
    Cs(f):	-0.069080631	-0.068605057	-0.00047557362	0
    Cs(r):	-0.045561765	-0.045108701	-0.00045306388	0

forces force_computation write:
    Sum of forces
        Total    : (57.856118 22.572925 17.05536)
        Pressure : (52.178817 22.359085 16.917207)
        Viscous  : (5.6773011 0.21384064 0.13815349)
    Sum of moments
        Total    : (-0.006485629 -2.5913495 3.320828)
        Pressure : (-0.0030570627 -2.5888693 3.2966694)
        Viscous  : (-0.0034285663 -0.002480163 0.024158641)
Time = 259

smoothSolver:  Solving for Ux, Initial residual = 0.00015368243, Final residual = 5.0555117e-06, No Iterations 2
smoothSolver:  Solving for Uy, Initial residual = 0.0011527254, Final residual = 3.721304e-05, No Iterations 2
smoothSolver:  Solving for Uz, Initial residual = 0.0014732285, Final residual = 4.414837e-05, No Iterations 2
GAMG:  Solving for p, Initial residual = 0.00082821552, Final residual = 7.1002155e-06, No Iterations 3
GAMG:  Solving for p, Initial residual = 0.00010986156, Final residual = 7.6878993e-07, No Iterations 3
GAMG:  Solving for p, Initial residual = 1.5678397e-05, Final residual = 1.0847326e-07, No Iterations 3
GAMG:  Solving for p, Initial residual = 3.1657307e-06, Final residual = 4.4853595e-08, No Iterations 2
GAMG:  Solving for p, Initial residual = 6.8562675e-07, Final residual = 4.5914181e-08, No Iterations 1
GAMG:  Solving for p, Initial residual = 1.8760778e-07, Final residual = 2.1880735e-08, No Iterations 1
time step continuity errors : sum local = 5.1015586e-08, global = 7.2946595e-09, cumulative = 1.3326018e-06
smoothSolver:  Solving for omega, Initial residual = 7.8246481e-06, Final residual = 4.9232088e-07, No Iterations 2
smoothSolver:  Solving for k, Initial residual = 0.00038819411, Final residual = 2.32259e-05, No Iterations 2
ExecutionTime = 121.93 s  ClockTime = 122 s

forceCoeffs forceCoeffs_cl write:
    Coefficient	Total	Pressure	Viscous	Internal
    Cd:	0.21401047	0.19301105	0.020999417	0
    Cd(f):	0.1069836	0.096492652	0.010490943	0
    Cd(r):	0.10702687	0.096518398	0.010508474	0
    Cl:	0.082133571	0.081346182	0.00078738975	0
    Cl(f):	0.032943531	0.032609247	0.00033428437	0
    Cl(r):	0.04919004	0.048736935	0.00045310538	0
    CmPitch:	-0.0081232543	-0.0080638438	-5.9410507e-05	0
    CmRoll:	-2.163833e-05	-1.2872855e-05	-8.7654753e-06	0
    CmYaw:	-0.0063714255	-0.0063664505	-4.9749962e-06	0
    Cs:	-0.062402056	-0.061892516	-0.00050953977	0
    Cs(f):	-0.037572453	-0.037312708	-0.00025974488	0
    Cs(r):	-0.024829602	-0.024579807	-0.00024979489	0

forceCoeffs forceCoeffs_cd write:
    Coefficient	Total	Pressure	Viscous	Internal
    Cd:	0.38965336	0.35141928	0.038234081	0
    Cd(f):	0.19478728	0.1756862	0.019101081	0
    Cd(r):	0.19486608	0.17573308	0.019133	0
    Cl:	0.14954232	0.14810871	0.0014336171	0
    Cl(f):	0.059980981	0.059372342	0.00060863859	0
    Cl(r):	0.089561341	0.088736363	0.00082497851	0
    CmPitch:	-0.01479018	-0.01468201	-0.00010816996	0
    CmRoll:	-3.9397364e-05	-2.3437878e-05	-1.5959485e-05	0
    CmYaw:	-0.011600589	-0.011591531	-9.0580803e-06	0
    Cs:	-0.11361674	-0.11268901	-0.00092772979	0
    Cs(f):	-0.068408957	-0.067936034	-0.00047292298	0
    Cs(r):	-0.04520778	-0.044752973	-0.00045480682	0

forces force_computation write:
    Sum of forces
        Total    : (57.968768 22.247426 16.902773)
        Pressure : (52.28068 22.034146 16.764754)
        Viscous  : (5.688088 0.21327935 0.13801845)
    Sum of moments
        Total    : (-0.0086817399 -2.556346 3.2592155)
        Pressure : (-0.0051648522 -2.5543499 3.2353788)
        Viscous  : (-0.0035168876 -0.00199607 0.023836708)
Time = 260

smoothSolver:  Solving for Ux, Initial residual = 0.0001521557, Final residual = 5.0263803e-06, No Iterations 2
smoothSolver:  Solving for Uy, Initial residual = 0.0011394103, Final residual = 3.7123826e-05, No Iterations 2
smoothSolver:  Solving for Uz, Initial residual = 0.001457247, Final residual = 4.3940494e-05, No Iterations 2
GAMG:  Solving for p, Initial residual = 0.00081161131, Final residual = 7.3234383e-06, No Iterations 3
GAMG:  Solving for p, Initial residual = 0.00010917829, Final residual = 7.906782e-07, No Iterations 3
GAMG:  Solving for p, Initial residual = 1.5620237e-05, Final residual = 1.1038912e-07, No Iterations 3
GAMG:  Solving for p, Initial residual = 3.1394166e-06, Final residual = 4.6067788e-08, No Iterations 2
GAMG:  Solving for p, Initial residual = 6.8734679e-07, Final residual = 4.6238157e-08, No Iterations 1
GAMG:  Solving for p, Initial residual = 1.8812067e-07, Final residual = 2.2358672e-08, No Iterations 1
time step continuity errors : sum local = 5.2343234e-08, global = 6.0665155e-09, cumulative = 1.3386683e-06
smoothSolver:  Solving for omega, Initial residual = 7.7445234e-06, Final residual = 4.878506e-07, No Iterations 2
smoothSolver:  Solving for k, Initial residual = 0.00037991868, Final residual = 2.3083169e-05, No Iterations 2
ExecutionTime = 122.37 s  ClockTime = 123 s

forceCoeffs forceCoeffs_cl write:
    Coefficient	Total	Pressure	Viscous	Internal
    Cd:	0.21438085	0.1933408	0.021040047	0
    Cd(f):	0.10716445	0.09665339	0.010511062	0
    Cd(r):	0.10721639	0.096687409	0.010528985	0
    Cl:	0.080848177	0.080063634	0.00078454326	0
    Cl(f):	0.03246217	0.032128411	0.00033375921	0
    Cl(r):	0.048386007	0.047935223	0.00045078405	0
    CmPitch:	-0.0079619182	-0.0079034058	-5.8512424e-05	0
    CmRoll:	-2.5970635e-05	-1.7009178e-05	-8.9614575e-06	0
    CmYaw:	-0.0062798539	-0.0062759245	-3.9293565e-06	0
    Cs:	-0.061790747	-0.061281892	-0.00050885541	0
    Cs(f):	-0.037175228	-0.036916871	-0.00025835706	0
    Cs(r):	-0.02461552	-0.024365021	-0.00025049835	0

forceCoeffs forceCoeffs_cd write:
    Coefficient	Total	Pressure	Viscous	Internal
    Cd:	0.39032772	0.35201966	0.038308057	0
    Cd(f):	0.19511657	0.17597886	0.019137712	0
    Cd(r):	0.19521114	0.1760408	0.019170345	0
    Cl:	0.14720198	0.14577354	0.0014284344	0
    Cl(f):	0.059104557	0.058496875	0.00060768241	0
    Cl(r):	0.088097421	0.087276669	0.00082075202	0
    CmPitch:	-0.014496432	-0.014389897	-0.0001065348	0
    CmRoll:	-4.7285283e-05	-3.0968968e-05	-1.6316314e-05	0
    CmYaw:	-0.011433862	-0.011426708	-7.1542621e-06	0
    Cs:	-0.11250371	-0.11157723	-0.00092648376	0
    Cs(f):	-0.067685719	-0.067215323	-0.00047039614	0
    Cs(r):	-0.044817995	-0.044361908	-0.00045608762	0

forces force_computation write:
    Sum of forces
        Total    : (58.069092 21.899252 16.737188)
        Pressure : (52.369999 21.686744 16.599355)
        Viscous  : (5.6990932 0.21250833 0.13783308)
    Sum of moments
        Total    : (-0.010419949 -2.5196056 3.1944841)
        Pressure : (-0.0068244294 -2.518029 3.1710077)
        Viscous  : (-0.0035955197 -0.001576538 0.023476379)
Time = 261

smoothSolver:  Solving for Ux, Initial residual = 0.00015086413, Final residual = 5.004649e-06, No Iterations 2
smoothSolver:  Solving for Uy, Initial residual = 0.0011269023, Final residual = 3.7246692e-05, No Iterations 2
smoothSolver:  Solving for Uz, Initial residual = 0.001444171, Final residual = 4.4180026e-05, No Iterations 2
GAMG:  Solving for p, Initial residual = 0.00079106169, Final residual = 7.5455455e-06, No Iterations 3
GAMG:  Solving for p, Initial residual = 0.00010867643, Final residual = 8.1120101e-07, No Iterations 3
GAMG:  Solving for p, Initial residual = 1.5548741e-05, Final residual = 1.1323568e-07, No Iterations 3
GAMG:  Solving for p, Initial residual = 3.1386947e-06, Final residual = 4.7127312e-08, No Iterations 2
GAMG:  Solving for p, Initial residual = 6.871502e-07, Final residual = 4.5843034e-08, No Iterations 1
GAMG:  Solving for p, Initial residual = 1.8785171e-07, Final residual = 2.2652596e-08, No Iterations 1
time step continuity errors : sum local = 5.3245762e-08, global = 5.8902777e-09, cumulative = 1.3445586e-06
smoothSolver:  Solving for omega, Initial residual = 7.6820994e-06, Final residual = 4.8377405e-07, No Iterations 2
smoothSolver:  Solving for k, Initial residual = 0.00037237884, Final residual = 2.3046056e-05, No Iterations 2
ExecutionTime = 122.81 s  ClockTime = 123 s

forceCoeffs forceCoeffs_cl write:
    Coefficient	Total	Pressure	Viscous	Internal
    Cd:	0.21471095	0.19362977	0.021081181	0
    Cd(f):	0.10732624	0.096794784	0.01053146	0
    Cd(r):	0.10738471	0.096834989	0.010549721	0
    Cl:	0.079482427	0.07870158	0.00078084696	0
    Cl(f):	0.031947891	0.03161496	0.00033293082	0
    Cl(r):	0.047534536	0.04708662	0.00044791614	0
    CmPitch:	-0.0077933227	-0.0077358301	-5.7492656e-05	0
    CmRoll:	-2.9232958e-05	-2.0102488e-05	-9.1304692e-06	0
    CmYaw:	-0.0061845459	-0.0061814696	-3.0763059e-06	0
    Cs:	-0.061135019	-0.06062703	-0.0005079895	0
    Cs(f):	-0.036752055	-0.036494984	-0.00025707106	0
    Cs(r):	-0.024382964	-0.024132045	-0.00025091845	0

forceCoeffs forceCoeffs_cd write:
    Coefficient	Total	Pressure	Viscous	Internal
    Cd:	0.39092876	0.3525458	0.038382951	0
    Cd(f):	0.19541115	0.1762363	0.019174851	0
    Cd(r):	0.1955176	0.1763095	0.019208099	0
    Cl:	0.14471533	0.14329362	0.0014217045	0
    Cl(f):	0.058168197	0.057562023	0.00060617416	0
    Cl(r):	0.086547131	0.0857316	0.00081553034	0
    CmPitch:	-0.014189467	-0.014084789	-0.00010467809	0
    CmRoll:	-5.3225061e-05	-3.6601024e-05	-1.6624037e-05	0
    CmYaw:	-0.011260333	-0.011254732	-5.6010949e-06	0
    Cs:	-0.11130982	-0.11038491	-0.00092490718	0
    Cs(f):	-0.066915241	-0.066447186	-0.00046805468	0
    Cs(r):	-0.044394575	-0.043937723	-0.0004568525	0

forces force_computation write:
    Sum of forces
        Total    : (58.158508 21.529313 16.559572)
        Pressure : (52.448273 21.317806 16.421973)
        Viscous  : (5.7102352 0.21150711 0.13759853)
    Sum of moments
        Total    : (-0.011728859 -2.4813661 3.1268402)
        Pressure : (-0.0080655287 -2.4801318 3.1037729)
        Viscous  : (-0.0036633306 -0.0012342767 0.023067227)
Time = 262

