/*---------------------------------------------------------------------------*\
| =========                 |                                                 |
| \\      /  F ield         | OpenFOAM: The Open Source CFD Toolbox           |
|  \\    /   O peration     | Version:  2112                                  |
|   \\  /    A nd           | Website:  www.openfoam.com                      |
|    \\/     M anipulation  |                                                 |
\*---------------------------------------------------------------------------*/
Build  : _6e1fca0e-20220610 OPENFOAM=2112 patch=220610 version=2112
Arch   : "LSB;label=32;scalar=64"
Exec   : surfaceFeatureExtract
Date   : May 07 2023
Time   : 12:16:29
Host   : hv-Precision-5820-Tower-X-Series
PID    : 73694
I/O    : uncollated
Case   : /home/hv/harsh/Anvil/cfd/Seaharrier
nProcs : 1
trapFpe: Floating point exception trapping enabled (FOAM_SIGFPE).
fileModificationChecking : Monitoring run-time modified files using timeStampMaster (fileModificationSkew 5, maxFileModificationPolls 20)
allowSystemOperations : Allowing user-supplied system call operations

// * * * * * * * * * * * * * * * * * * * * * * * * * * * * * * * * * * * * * //
Create time


Note: Feature line extraction only valid on closed manifold surfaces

Reading surfaceFeatureExtractDict

Surfaces     : UUV.stl
Output       : UUV
Load options : offset
Write options: writeObj=yes writeVTK=off

Statistics:
Triangles    : 58464 in 1 region(s)
Vertices     : 29198
Bounding Box : (-0.91575974 -0.22561626 -0.74994797) (1.3180552 0.20364377 0.7499221)

Constructing feature set from included angle 150
Selecting edges based purely on geometric tests: no

Initial Feature set:
    points : 69
    edges  : 6098
    of which
        region edges   : 0
        external edges : 3726
        internal edges : 2372

Final Feature set:
    points : 6076
    of which
        convex             : 10
        concave            : 12
        mixed              : 47
        non-feature        : 6007
    edges  : 6098
    of which
        external edges     : 3726
        internal edges     : 2372
        flat edges         : 0
        open edges         : 0
        multiply connected : 0

Writing extendedFeatureEdgeMesh to "/home/hv/harsh/Anvil/cfd/Seaharrier/constant/extendedFeatureEdgeMesh/UUV.extendedFeatureEdgeMesh"

Writing extendedEdgeMesh components to "/home/hv/harsh/Anvil/cfd/Seaharrier/constant/extendedFeatureEdgeMesh/UUV"
Writing 10 convex feature points to "/home/hv/harsh/Anvil/cfd/Seaharrier/constant/extendedFeatureEdgeMesh/UUV_convexFeaturePts.obj"
Writing 12 concave feature points to "/home/hv/harsh/Anvil/cfd/Seaharrier/constant/extendedFeatureEdgeMesh/UUV_concaveFeaturePts.obj"
Writing 47 mixed feature points to "/home/hv/harsh/Anvil/cfd/Seaharrier/constant/extendedFeatureEdgeMesh/UUV_mixedFeaturePts.obj"
Writing 47 mixed feature point structure to "/home/hv/harsh/Anvil/cfd/Seaharrier/constant/extendedFeatureEdgeMesh/UUV_mixedFeaturePtsStructure.obj"
Writing 3726 external edges to "/home/hv/harsh/Anvil/cfd/Seaharrier/constant/extendedFeatureEdgeMesh/UUV_externalEdges.obj"
Writing 2372 internal edges to "/home/hv/harsh/Anvil/cfd/Seaharrier/constant/extendedFeatureEdgeMesh/UUV_internalEdges.obj"
Writing 0 flat edges to "/home/hv/harsh/Anvil/cfd/Seaharrier/constant/extendedFeatureEdgeMesh/UUV_flatEdges.obj"
Writing 0 open edges to "/home/hv/harsh/Anvil/cfd/Seaharrier/constant/extendedFeatureEdgeMesh/UUV_openEdges.obj"
Writing 0 multiple edges to "/home/hv/harsh/Anvil/cfd/Seaharrier/constant/extendedFeatureEdgeMesh/UUV_multipleEdges.obj"
Writing 0 region edges to "/home/hv/harsh/Anvil/cfd/Seaharrier/constant/extendedFeatureEdgeMesh/UUV_regionEdges.obj"
Writing 6098 edge directions to "/home/hv/harsh/Anvil/cfd/Seaharrier/constant/extendedFeatureEdgeMesh/UUV_edgeDirections.obj"

Writing featureEdgeMesh to "/home/hv/harsh/Anvil/cfd/Seaharrier/constant/triSurface/UUV.eMesh"
ExecutionTime = 0.2 s  ClockTime = 0 s

End

